/*---------------------------------------------------------------------------*\
| =========                 |                                                 |
| \\      /  F ield         | OpenFOAM: The Open Source CFD Toolbox           |
|  \\    /   O peration     | Version:  v1812                                 |
|   \\  /    A nd           | Web:      www.OpenFOAM.com                      |
|    \\/     M anipulation  |                                                 |
\*---------------------------------------------------------------------------*/
Build  : v1812 OPENFOAM=1812
Arch   : "LSB;label=32;scalar=64"
Exec   : checkMesh
Date   : Oct 01 2019
Time   : 13:23:33
Host   : mdolabping
PID    : 968
I/O    : uncollated
Case   : /home/ping/Dropbox/Repos/of_rom/tutorials/AhmedBody_New/runROM
nProcs : 1
trapFpe: Floating point exception trapping enabled (FOAM_SIGFPE).
fileModificationChecking : Monitoring run-time modified files using timeStampMaster (fileModificationSkew 10)
allowSystemOperations : Allowing user-supplied system call operations

// * * * * * * * * * * * * * * * * * * * * * * * * * * * * * * * * * * * * * //
Create time

Create mesh for time = 0

Time = 0

Mesh stats
    points:           16292
    faces:            41545
    internal faces:   37798
    cells:            12702
    faces per cell:   6.246496614706346
    boundary patches: 7
    point zones:      0
    face zones:       0
    cell zones:       0

Overall number of cells of each type:
    hexahedra:     11468
    prisms:        36
    wedges:        0
    pyramids:      0
    tet wedges:    0
    tetrahedra:    0
    polyhedra:     1198
    Breakdown of polyhedra by number of faces:
        faces   number of cells
            5   16
            6   230
            9   867
           12   62
           15   22
           18   1

Checking topology...
    Boundary definition OK.
    Cell to face addressing OK.
    Point usage OK.
    Upper triangular ordering OK.
    Face vertices OK.
    Number of regions: 1 (OK).

Checking patch topology for multiply connected surfaces...
                   Patch    Faces   Points                  Surface topology
                   inlet       25       36  ok (non-closed singly connected)
                  outlet       25       36  ok (non-closed singly connected)
                    back     1050     1231  ok (non-closed singly connected)
                   front      100      126  ok (non-closed singly connected)
                     bot     1168     1291  ok (non-closed singly connected)
                     top      100      126  ok (non-closed singly connected)
                    body     1279     1342  ok (non-closed singly connected)

Checking faceZone topology for multiply connected surfaces...
    No faceZones found.

Checking basic cellZone addressing...
    No cellZones found.

Checking geometry...
    Overall domain bounding box (-2.000222893069049 0 0) (6 2 2.000323407115726)
    Mesh has 3 geometric (non-empty/wedge) directions (1 1 1)
    Mesh has 3 solution (non-empty) directions (1 1 1)
    Boundary openness (1.052958262537037e-17 -3.507165741591337e-16 -6.962472814450076e-17) OK.
    Max cell openness = 3.602558770291298e-16 OK.
    Max aspect ratio = 3.295703682523669 OK.
    Minimum face area = 4.84467265101073e-05. Maximum face area = 0.1608178950709162.  Face area magnitudes OK.
    Min volume = 3.704712915598919e-06. Max volume = 0.06425600205408306.  Total volume = 31.94499586333727.  Cell volumes OK.
    Mesh non-orthogonality Max: 42.59199562207476 average: 8.826488444724619
    Non-orthogonality check OK.
    Face pyramids OK.
    Max skewness = 3.618828619992703 OK.
    Coupled point location match (average 0) OK.

Mesh OK.

End

