/*---------------------------------------------------------------------------*\
| =========                 |                                                 |
| \\      /  F ield         | OpenFOAM: The Open Source CFD Toolbox           |
|  \\    /   O peration     | Version:  v1812                                 |
|   \\  /    A nd           | Web:      www.OpenFOAM.com                      |
|    \\/     M anipulation  |                                                 |
\*---------------------------------------------------------------------------*/
Build  : v1812 OPENFOAM=1812
Arch   : "LSB;label=32;scalar=64"
Exec   : simpleDAFoam
Date   : Oct 01 2019
Time   : 13:23:39
Host   : mdolabping
PID    : 973
I/O    : uncollated
Case   : /home/ping/Dropbox/Repos/of_rom/tutorials/AhmedBody_New/runROM
nProcs : 1
trapFpe: Floating point exception trapping enabled (FOAM_SIGFPE).
fileModificationChecking : Monitoring run-time modified files using timeStampMaster (fileModificationSkew 10)
allowSystemOperations : Allowing user-supplied system call operations

// * * * * * * * * * * * * * * * * * * * * * * * * * * * * * * * * * * * * * //
Create time

Create mesh for time = 0


SIMPLE: convergence criteria
    field U	 tolerance 9.999999999999999e-21
    field nuTilda	 tolerance 9.999999999999999e-21
    field p	 tolerance 9.999999999999999e-21
    field e	 tolerance 9.999999999999999e-21
    field h	 tolerance 9.999999999999999e-21
    field p_rgh	 tolerance 9.999999999999999e-21
    field k	 tolerance 9.999999999999999e-21
    field omega	 tolerance 9.999999999999999e-21
    field epsilon	 tolerance 9.999999999999999e-21
    field T	 tolerance 9.999999999999999e-21
    field rho	 tolerance 9.999999999999999e-21

Reading field p

Reading field U

Reading/calculating face flux field phi

Selecting incompressible transport model Newtonian
Selecting turbulence model type RAS
Selecting RAS turbulence model SpalartAllmarasFv3
Selecting patchDistMethod meshWave
RAS
{
    RASModel        SpalartAllmarasFv3;
    turbulence      on;
    printCoeffs     on;
    epsilonMin      1e-16;
    kInf            1;
    lambdaErr       1e-06;
    decayControl    no;
    omegaInf        1;
    omegaMin        1e-16;
    maxLambdaIter   10;
    Cv2             5;
    kMin            1e-16;
    nuTildaMin      1e-16;
    sigmaNut        0.66666;
    kappa           0.41;
    Cb1             0.1355;
    Cb2             0.622;
    Cw2             0.3;
    Cw3             2;
    Cv1             7.1;
}

Creating MRF zone list from MRFProperties
    creating MRF zone: MRF
    No MRF zones active
Adjoint Parameters
{
    epsDeriv        1e-05;
    epsDerivFFD     0.001;
    epsDerivXv(D)   1e-07;
    epsDerivUIn(D)  1e-05;
    epsDerivVis(D)  1e-08;
    minTolJac(D)    1e-14;
    maxTolJac(D)    100000000000000;
    minTolPC(D)     1e-14;
    maxTolPC(D)     100000000000000;
    stateResetTol(D) 1e-06;
    tractionBCMaxIter(D) 20;
    solveAdjoint    false;
    useColoring     false;
    correctWallDist(D) true;
    reduceResCon4JacMat(D) false;
    delTurbProd4PCMat(D) false;
    calcPCMat(D)    true;
    fastPCMat(D)    false;
    writeMatrices(D) false;
    adjGMRESCalcEigen(D) false;
    readMatrices(D) false;
    adjJacMatOrdering(D) state;
    adjJacMatReOrdering(D) rcm;
    adjSegregated(D) false;
    segAdjParameters(D) 0 ( );
    adjGMRESRestart(D) 200;
    adjGlobalPCIters(D) 0;
    adjLocalPCIters(D) 1;
    adjASMOverlap(D) 1;
    adjPCFillLevel(D) 0;
    adjGMRESMaxIters(D) 1000;
    adjGMRESAbsTol(D) 1e-16;
    adjGMRESRelTol(D) 1e-06;
    normalizeResiduals 3 ( URes pRes nuTildaRes );
    normalizeStates 0 ( );
    maxResConLv4JacPCMat 14 ( epsilonRes 2 TRes 2 phiRes 1 omegaRes 2 ReThetatRes 2 pRes 2 DRes 2 URes 2 kRes 2 eRes 2 p_rghRes 2 gammaIntRes 2 nuTildaRes 2 GRes 2 );
    stateScaling(D) 0 ( );
    residualScaling(D) 0 ( );
    adjDVTypes      1 ( FFD );
    nFFDPoints      4;
    setFlowBCs(D)   false;
    flowBCs
    {
        useWallFunction true;
        bc4
        {
            patch           inlet;
            variable        epsilon;
            value           ( 2.16 );
        }
        bc5
        {
            patch           inlet;
            variable        nuTilda;
            value           ( 0.00015 );
        }
        bc0
        {
            patch           inlet;
            variable        U;
            value           ( 20 0 0 );
        }
        bc1
        {
            patch           outlet;
            variable        p;
            value           ( 0 );
        }
        bc2
        {
            patch           inlet;
            variable        k;
            value           ( 0.06 );
        }
        bc3
        {
            patch           inlet;
            variable        omega;
            value           ( 400 );
        }
    }
    inletPatches    1 ( inlet );
    outletPatches   1 ( outlet );
    derivUInInfo
    {
        stateName       U;
        component       0;
        type            fixedValue;
        patchNames      ( inlet );
    }
    userDefinedPatchInfo
    {
    }
    userDefinedVolumeInfo
    {
    }
    referenceValues 5 ( rhoRef 1 magURef 20 ARef 0.056016 LRef 1 pRef 0 );
    divDev2(D)      true;
    flowCondition(D) Incompressible;
    flowProperties  5 ( Pr 0.7 beta 0.003 nu 1.5e-05 TRef 300 Prt 0.85 );
    useNKSolver(D)  false;
    nkPseudoTransient(D) false;
    nkSegregatedTurb(D) false;
    nkSegregatedPhi(D) false;
    nkEWRTol0(D)    0.3;
    nkEWRTolMax(D)  0.7;
    nkPCLag         1;
    nkGMRESRestart(D) 500;
    nkASMOverlap(D) 1;
    nkPCFillLevel(D) 0;
    nkGlobalPCIters(D) 0;
    nkLocalPCIters(D) 1;
    nkGMRESMaxIters(D) 500;
    nkJacMatReOrdering(D) rcm;
    nkRelTol(D)     1e-08;
    nkAbsTol(D)     1e-12;
    nkSTol(D)       1e-08;
    nkMaxIters(D)   100;
    nkMaxFuncEvals(D) 10000;
    actuatorActive(D) 0;
    actuatorAdjustThrust(D) 0;
    actuatorVolumeNames(D) 0 ( );
    actuatorThrustCoeff(D) 0 ( );
    actuatorPOverD(D) 0 ( );
    actuatorRotationDir(D) 0 ( );
    objFuncs        1 ( CD );
    objFuncGeoInfo  1 ( 1 ( body ) );
    dragDir         ( 1 0 0 );
    liftDir         ( 0 0 1 );
    CofR(D)         ( 0 0 0 );
    rotRad(D)       ( 0 0 0 );
}

fvSchemes
{
    d2dt2Schemes
    {
        default         steadyState;
    }
    ddtSchemes
    {
        default         steadyState;
    }
    gradSchemes
    {
        default         Gauss linear;
    }
    divSchemes
    {
        default         none;
        div(phi,e)      bounded Gauss upwind;
        div(phi,omega)  bounded Gauss upwind;
        div((nuEff*dev2(T(grad(U))))) Gauss linear;
        div(phi,gammaInt) bounded Gauss upwind;
        div(phi,h)      bounded Gauss upwind;
        div((-devRhoReff.T()&U)) Gauss linear;
        div((p*(U-URel))) Gauss linear;
        div((phi|interpolate(rho)),p) Gauss upwind;
        div(phi,k)      bounded Gauss upwind;
        div(phi,epsilon) bounded Gauss upwind;
        div(phi,U)      bounded Gauss linearUpwindV grad(U);
        div(phid,p)     Gauss upwind;
        div(phi,T)      bounded Gauss upwind;
        div(phi,ReThetat) bounded Gauss upwind;
        div(pc)         bounded Gauss upwind;
        div(((rho*nuEff)*dev2(T(grad(U))))) Gauss linear;
        div(phi,nuTilda) bounded Gauss upwind;
        div(phi,K)      bounded Gauss upwind;
        div(phi,Ekp)    bounded Gauss upwind;
        div(sigmaD)     Gauss linear;
    }
    interpolationSchemes
    {
        default         linear;
    }
    laplacianSchemes
    {
        default         Gauss linear corrected;
    }
    snGradSchemes
    {
        default         corrected;
    }
    fluxRequired
    {
        default         no;
        p               ;
        p_rgh           ;
        Phi             ;
    }
    wallDist
    {
        method          meshWave;
    }
}

fvSolution
{
    SIMPLE
    {
        consistent      false;
        pLowerBound     20000;
        eUpperBound     800000;
        eLowerBound     50000;
        hLowerBound     50000;
        pUpperBound     1000000;
        rhoUpperBound   10;
        rhoLowerBound   0.2;
        transonic       false;
        UUpperBound     1000;
        ULowerBound     -1000;
        hUpperBound     800000;
        nNonOrthogonalCorrectors 0;
        residualControl
        {
            U               9.999999999999999e-21;
            nuTilda         9.999999999999999e-21;
            p               9.999999999999999e-21;
            e               9.999999999999999e-21;
            h               9.999999999999999e-21;
            p_rgh           9.999999999999999e-21;
            k               9.999999999999999e-21;
            omega           9.999999999999999e-21;
            epsilon         9.999999999999999e-21;
            T               9.999999999999999e-21;
            rho             9.999999999999999e-21;
        }
    }
    PISO
    {
        pRefCell        0;
        rDeltaTSmoothingCoeff 0.5;
        nCorrectors     2;
        pRefValue       0;
        maxDeltaT       0.5;
        nNonOrthogonalCorrectors 0;
        maxCo           0.5;
    }
    solvers
    {
        "(p|p_rgh|G)Final"
        {
            relTol          0;
            nPreSweeps      0;
            nCellsInCoarsestLevel 10;
            agglomerator    faceAreaPair;
            maxIter         500;
            solver          GAMG;
            tolerance       1e-06;
            smoother        GaussSeidel;
            cacheAgglomeration true;
            mergeLevels     1;
            nPostSweeps     2;
        }
        Phi
        {
            relTol          0.01;
            maxIter         50;
            agglomerator    faceAreaPair;
            nCellsInCoarsestLevel 10;
            solver          GAMG;
            cacheAgglomeration true;
            mergeLevels     1;
            smoother        DIC;
            tolerance       1e-06;
        }
        "(U|T|e|h|nuTilda|k|omega|epsilon|ReThetat|gammaInt)Final"
        {
            relTol          0;
            nSweeps         1;
            solver          smoothSolver;
            smoother        GaussSeidel;
            maxIter         500;
            tolerance       1e-06;
        }
        "(U|T|e|h|nuTilda|k|omega|epsilon|ReThetat|gammaInt)"
        {
            relTol          0.1;
            nSweeps         1;
            solver          smoothSolver;
            smoother        GaussSeidel;
            maxIter         10;
            tolerance       9.999999999999999e-21;
        }
        "(p|p_rgh|G)"
        {
            relTol          0.1;
            nPreSweeps      0;
            nCellsInCoarsestLevel 10;
            agglomerator    faceAreaPair;
            maxIter         10;
            solver          GAMG;
            tolerance       9.999999999999999e-21;
            smoother        GaussSeidel;
            cacheAgglomeration true;
            mergeLevels     1;
            nPostSweeps     2;
        }
    }
    relaxationFactors
    {
        fields
        {
            p               0.3;
            p_rgh           0.3;
            rho             0.3;
        }
        equations
        {
            G               0.7;
            epsilon         0.7;
            U               0.7;
            T               0.7;
            nuTilda         0.7;
            omega           0.7;
            e               0.7;
            h               0.7;
            k               0.7;
            gammaInt        0.7;
            ReThetat        0.7;
        }
    }
    potentialFlow
    {
        nNonOrthogonalCorrectors 20;
        PhiRefCell      0;
        PhiRefValue     0;
    }
    stressAnalysis
    {
        compactNormalStress yes;
        nCorrectors     1;
        D               9.999999999999999e-21;
    }
}

Selecting simpleDAFoam for AdjointSolverRegistry
Selecting SpalartAllmarasFv3 for AdjointRASModel
AdjointRASDict:
{
    RASModel        SpalartAllmarasFv3;
    turbulence      on;
    printCoeffs     on;
    epsilonMin      1e-16;
    kInf            1;
    lambdaErr       1e-06;
    decayControl    no;
    omegaInf        1;
    omegaMin        1e-16;
    maxLambdaIter   10;
    Cv2             5;
    kMin            1e-16;
    nuTildaMin      1e-16;
}

Adjoint States: 
4
(
U volVectorState
nuTilda turbState
phi surfaceScalarState
p volScalarState
)
Global Cells: 12702
Global Faces: 41545
Global Xv: 48876
Undecomposed points: 16292
Global Adjoint States: 105055
Selecting simpleDAFoam for AdjointJacobianConnectivity
No finite volume options present

Starting time loop

forces forceCoeffs:
    Not including porosity effects

forceCoeffs forceCoeffs:
    Not including porosity effects

Time = 1

smoothSolver:  Solving for Ux, Initial residual = 0.9999999999979757, Final residual = 0.05523937416097266, No Iterations 5
smoothSolver:  Solving for Uy, Initial residual = 1, Final residual = 0.06023883256502762, No Iterations 4
smoothSolver:  Solving for Uz, Initial residual = 1, Final residual = 0.05241886342349187, No Iterations 5
GAMG:  Solving for p, Initial residual = 1, Final residual = 0.05656281204059201, No Iterations 4
time step continuity errors : sum local = 0.004055407523480855, global = 0.0007435101154426305, cumulative = 0.0007435101154426305
smoothSolver:  Solving for nuTilda, Initial residual = 0.9999999999947969, Final residual = 0.09790204868656008, No Iterations 1
bounding nuTilda, min: 0 max: 0.0001947845439606378 average: 0.000153782365960829
CD: 4.738137004751261
ExecutionTime = 0.17 s  ClockTime = 0 s

forceCoeffs forceCoeffs execute:
    Coefficients
        Cm       : 0.5360938944098227	(pressure: 0.5242644324066913	viscous: 0.01182946200313144)
        Cd       : 4.738137004751258	(pressure: 4.676613123200223	viscous: 0.06152388155103482)
        Cl       : 1.104825238956733	(pressure: 1.104787972066395	viscous: 3.726689033717481e-05)
        Cl(f)    : 1.088506513888189
        Cl(r)    : 0.01631872506854359

Time = 2

smoothSolver:  Solving for Ux, Initial residual = 0.3280409976504682, Final residual = 0.02174507668499959, No Iterations 3
smoothSolver:  Solving for Uy, Initial residual = 0.4412252162706632, Final residual = 0.03015459820680135, No Iterations 3
smoothSolver:  Solving for Uz, Initial residual = 0.4292360824210564, Final residual = 0.02562411115432998, No Iterations 3
GAMG:  Solving for p, Initial residual = 0.3133121797858888, Final residual = 0.0258234695602133, No Iterations 2
time step continuity errors : sum local = 0.01447647847656639, global = 0.001759984379608454, cumulative = 0.002503494495051084
smoothSolver:  Solving for nuTilda, Initial residual = 0.307407242866665, Final residual = 0.0119478637324849, No Iterations 2
bounding nuTilda, min: 0 max: 0.0002441033369979724 average: 0.0001610120261030064
CD: 5.06301984862667
ExecutionTime = 0.19 s  ClockTime = 0 s

forceCoeffs forceCoeffs execute:
    Coefficients
        Cm       : 0.4352586716077055	(pressure: 0.4227336876190177	viscous: 0.01252498398868777)
        Cd       : 5.063019848626666	(pressure: 5.000310777874903	viscous: 0.0627090707517637)
        Cl       : 1.106674703648601	(pressure: 1.106751974789026	viscous: -7.72711404248642e-05)
        Cl(f)    : 0.9885960234320058
        Cl(r)    : 0.1180786802165948

Time = 3

smoothSolver:  Solving for Ux, Initial residual = 0.09739369137114169, Final residual = 0.006426491424071671, No Iterations 3
smoothSolver:  Solving for Uy, Initial residual = 0.1761147866032945, Final residual = 0.01265715820284762, No Iterations 3
smoothSolver:  Solving for Uz, Initial residual = 0.1595635852624462, Final residual = 0.009953797987592704, No Iterations 3
GAMG:  Solving for p, Initial residual = 0.2860085265906139, Final residual = 0.01205147420521139, No Iterations 3
time step continuity errors : sum local = 0.01005309352766732, global = 0.0002644751135097264, cumulative = 0.002767969608560811
smoothSolver:  Solving for nuTilda, Initial residual = 0.1792023336753777, Final residual = 0.007629210999369023, No Iterations 2
bounding nuTilda, min: 0 max: 0.0003141631934611494 average: 0.0001708330044735066
CD: 2.065609866997909
ExecutionTime = 0.22 s  ClockTime = 0 s

forceCoeffs forceCoeffs execute:
    Coefficients
        Cm       : 0.1601361097431332	(pressure: 0.1471429652099566	viscous: 0.01299314453317666)
        Cd       : 2.065609866997907	(pressure: 2.004306988146662	viscous: 0.06130287885124516)
        Cl       : -0.05089190327201568	(pressure: -0.05048093852770296	viscous: -0.0004109647443127225)
        Cl(f)    : 0.1346901581071254
        Cl(r)    : -0.1855820613791411

Time = 4

smoothSolver:  Solving for Ux, Initial residual = 0.02850509948562717, Final residual = 0.001600871990928599, No Iterations 3
smoothSolver:  Solving for Uy, Initial residual = 0.06022437779148036, Final residual = 0.003694237878489573, No Iterations 3
smoothSolver:  Solving for Uz, Initial residual = 0.04772299505435459, Final residual = 0.002757860999667162, No Iterations 3
GAMG:  Solving for p, Initial residual = 0.2258533464241573, Final residual = 0.01004895405384408, No Iterations 3
time step continuity errors : sum local = 0.008238824574604902, global = -0.0004814022817433397, cumulative = 0.002286567326817471
smoothSolver:  Solving for nuTilda, Initial residual = 0.1261083804093908, Final residual = 0.005836231593360528, No Iterations 2
bounding nuTilda, min: 0 max: 0.0004089570590392973 average: 0.0001832078020634125
CD: -0.767103809902541
ExecutionTime = 0.25 s  ClockTime = 0 s

forceCoeffs forceCoeffs execute:
    Coefficients
        Cm       : -0.2096294167259522	(pressure: -0.2220938128391363	viscous: 0.01246439611318407)
        Cd       : -0.7671038099025406	(pressure: -0.8228193480223964	viscous: 0.05571553811985584)
        Cl       : -0.6150628372133212	(pressure: -0.6140042117977412	viscous: -0.001058625415579982)
        Cl(f)    : -0.5171608353326128
        Cl(r)    : -0.09790200188070841

Time = 5

smoothSolver:  Solving for Ux, Initial residual = 0.03852362642219887, Final residual = 0.002596431272582379, No Iterations 3
smoothSolver:  Solving for Uy, Initial residual = 0.1384676506061803, Final residual = 0.009173419443770297, No Iterations 3
smoothSolver:  Solving for Uz, Initial residual = 0.07635826379622405, Final residual = 0.004469486150462974, No Iterations 3
GAMG:  Solving for p, Initial residual = 0.3418046144199258, Final residual = 0.02404733402958312, No Iterations 2
time step continuity errors : sum local = 0.01625550398836906, global = -0.002889840147098552, cumulative = -0.0006032728202810815
smoothSolver:  Solving for nuTilda, Initial residual = 0.09635738148819385, Final residual = 0.004781723429324639, No Iterations 2
bounding nuTilda, min: 0 max: 0.000528249156935789 average: 0.0001982421445707886
CD: -1.592357028258329
ExecutionTime = 0.28 s  ClockTime = 0 s

forceCoeffs forceCoeffs execute:
    Coefficients
        Cm       : -0.4473986255252779	(pressure: -0.4587493592761296	viscous: 0.01135073375085173)
        Cd       : -1.59235702825833	(pressure: -1.642339611581108	viscous: 0.0499825833227776)
        Cl       : -0.2711704410350016	(pressure: -0.2697460940967124	viscous: -0.001424346938289235)
        Cl(f)    : -0.5829838460427788
        Cl(r)    : 0.3118134050077771

Time = 6

smoothSolver:  Solving for Ux, Initial residual = 0.03998994200087234, Final residual = 0.002651076295299305, No Iterations 3
smoothSolver:  Solving for Uy, Initial residual = 0.1807426216509049, Final residual = 0.01310988886446149, No Iterations 3
smoothSolver:  Solving for Uz, Initial residual = 0.08118065362431369, Final residual = 0.005080963690827333, No Iterations 3
GAMG:  Solving for p, Initial residual = 0.4771982110825834, Final residual = 0.04493047407651065, No Iterations 2
time step continuity errors : sum local = 0.02353026397229119, global = -0.002119181636342087, cumulative = -0.002722454456623169
smoothSolver:  Solving for nuTilda, Initial residual = 0.07774072372124548, Final residual = 0.004150888268178552, No Iterations 2
bounding nuTilda, min: 0 max: 0.0006724394193284144 average: 0.000216435084402458
CD: -0.8729096492778886
ExecutionTime = 0.31 s  ClockTime = 0 s

forceCoeffs forceCoeffs execute:
    Coefficients
        Cm       : -0.6568893896622436	(pressure: -0.667380448037002	viscous: 0.01049105837475837)
        Cd       : -0.8729096492778886	(pressure: -0.9201040866803902	viscous: 0.04719443740250157)
        Cl       : 0.713184223037526	(pressure: 0.714479977886728	viscous: -0.001295754849201962)
        Cl(f)    : -0.3002972781434806
        Cl(r)    : 1.013481501181007

Time = 7

smoothSolver:  Solving for Ux, Initial residual = 0.03193984625056728, Final residual = 0.001692213807025078, No Iterations 3
smoothSolver:  Solving for Uy, Initial residual = 0.1524766894042878, Final residual = 0.008597468921285574, No Iterations 3
smoothSolver:  Solving for Uz, Initial residual = 0.07759238546233763, Final residual = 0.004002655335458251, No Iterations 3
GAMG:  Solving for p, Initial residual = 0.4843242492573602, Final residual = 0.0467976913261254, No Iterations 2
time step continuity errors : sum local = 0.02084046131236681, global = -0.0005485812370705431, cumulative = -0.003271035693693712
smoothSolver:  Solving for nuTilda, Initial residual = 0.06477937208238589, Final residual = 0.003744320648509603, No Iterations 2
bounding nuTilda, min: 0 max: 0.000839753175601675 average: 0.0002383787746210636
CD: 0.3987415247762113
ExecutionTime = 0.34 s  ClockTime = 0 s

forceCoeffs forceCoeffs execute:
    Coefficients
        Cm       : -0.5977102505060866	(pressure: -0.6075890576427645	viscous: 0.009878807136677903)
        Cd       : 0.3987415247762116	(pressure: 0.3517781239809633	viscous: 0.0469634007952483)
        Cl       : 1.312170041589417	(pressure: 1.312806126061767	viscous: -0.0006360844723500829)
        Cl(f)    : 0.05837477028862204
        Cl(r)    : 1.253795271300795

Time = 8

smoothSolver:  Solving for Ux, Initial residual = 0.03358009910663096, Final residual = 0.001883900420991832, No Iterations 3
smoothSolver:  Solving for Uy, Initial residual = 0.153096601169296, Final residual = 0.00921510485544761, No Iterations 3
smoothSolver:  Solving for Uz, Initial residual = 0.09857225260515465, Final residual = 0.005561280198145367, No Iterations 3
GAMG:  Solving for p, Initial residual = 0.4843768312174515, Final residual = 0.02827897946406157, No Iterations 2
time step continuity errors : sum local = 0.01373638482495265, global = 0.0008140275212247683, cumulative = -0.002457008172468944
smoothSolver:  Solving for nuTilda, Initial residual = 0.0551926520035523, Final residual = 0.00347419064891505, No Iterations 2
bounding nuTilda, min: 0 max: 0.001036094938395574 average: 0.0002642719929915716
CD: 1.21214482964802
ExecutionTime = 0.37 s  ClockTime = 0 s

forceCoeffs forceCoeffs execute:
    Coefficients
        Cm       : -0.3127283564647539	(pressure: -0.3224651312630471	viscous: 0.009736774798293211)
        Cd       : 1.212144829648019	(pressure: 1.164452391984233	viscous: 0.04769243766378576)
        Cl       : 1.093714346229748	(pressure: 1.093892507882588	viscous: -0.0001781616528406315)
        Cl(f)    : 0.2341288166501199
        Cl(r)    : 0.8595855295796277

Time = 9

smoothSolver:  Solving for Ux, Initial residual = 0.03282555774086855, Final residual = 0.002037371907024014, No Iterations 3
smoothSolver:  Solving for Uy, Initial residual = 0.1335393560991592, Final residual = 0.008878292458492797, No Iterations 3
smoothSolver:  Solving for Uz, Initial residual = 0.08301252891761635, Final residual = 0.005132185368517899, No Iterations 3
GAMG:  Solving for p, Initial residual = 0.636872901105093, Final residual = 0.04190159511871222, No Iterations 2
time step continuity errors : sum local = 0.01571477084041252, global = 0.002851353420552185, cumulative = 0.000394345248083241
smoothSolver:  Solving for nuTilda, Initial residual = 0.04770340714437982, Final residual = 0.003300751583458183, No Iterations 2
bounding nuTilda, min: 0 max: 0.001253768927813922 average: 0.0002949219761278579
CD: 1.408903896622888
ExecutionTime = 0.4 s  ClockTime = 0 s

forceCoeffs forceCoeffs execute:
    Coefficients
        Cm       : 0.001098022075145073	(pressure: -0.008723392470201105	viscous: 0.009821414545346178)
        Cd       : 1.408903896622885	(pressure: 1.360897302480063	viscous: 0.04800659414282193)
        Cl       : 0.441427060306365	(pressure: 0.4415361326434792	viscous: -0.0001090723371141997)
        Cl(f)    : 0.2218115522283276
        Cl(r)    : 0.2196155080780375

Time = 10

smoothSolver:  Solving for Ux, Initial residual = 0.02610725037870532, Final residual = 0.001553732889166045, No Iterations 3
smoothSolver:  Solving for Uy, Initial residual = 0.1077620773376091, Final residual = 0.00575373537779311, No Iterations 3
smoothSolver:  Solving for Uz, Initial residual = 0.05712513288160993, Final residual = 0.003349872032673365, No Iterations 3
GAMG:  Solving for p, Initial residual = 0.3542670948643183, Final residual = 0.02911978857982832, No Iterations 2
time step continuity errors : sum local = 0.01727395306582421, global = 0.001744694109976101, cumulative = 0.002139039358059342
smoothSolver:  Solving for nuTilda, Initial residual = 0.04152296920528006, Final residual = 0.003156367213036205, No Iterations 2
bounding nuTilda, min: 0 max: 0.001515869740010503 average: 0.0003310781572922652
CD: 1.028728579027582
ExecutionTime = 0.43 s  ClockTime = 0 s

forceCoeffs forceCoeffs execute:
    Coefficients
        Cm       : 0.1757825658740523	(pressure: 0.1658228876371136	viscous: 0.009959678236938684)
        Cd       : 1.028728579027582	(pressure: 0.9812430628764264	viscous: 0.04748551615115573)
        Cl       : -0.2098514674529614	(pressure: -0.2094280191785901	viscous: -0.0004234482743713376)
        Cl(f)    : 0.07085683214757162
        Cl(r)    : -0.280708299600533

Time = 11

smoothSolver:  Solving for Ux, Initial residual = 0.02123678870839142, Final residual = 0.001192854615942371, No Iterations 3
smoothSolver:  Solving for Uy, Initial residual = 0.1248578143800535, Final residual = 0.006487681590773566, No Iterations 3
smoothSolver:  Solving for Uz, Initial residual = 0.05147334917176647, Final residual = 0.002724787260247438, No Iterations 3
GAMG:  Solving for p, Initial residual = 0.2676482633053997, Final residual = 0.01711308219349605, No Iterations 2
time step continuity errors : sum local = 0.01309881774560918, global = 0.0009767697881195878, cumulative = 0.00311580914617893
smoothSolver:  Solving for nuTilda, Initial residual = 0.03632290470843014, Final residual = 0.003033314935506524, No Iterations 2
bounding nuTilda, min: 0 max: 0.001914167675389327 average: 0.000373294562061871
CD: 0.441506802968374
ExecutionTime = 0.45 s  ClockTime = 0 s

forceCoeffs forceCoeffs execute:
    Coefficients
        Cm       : 0.0538763613133693	(pressure: 0.0439406408716099	viscous: 0.009935720441759404)
        Cd       : 0.4415068029683739	(pressure: 0.395302834110177	viscous: 0.04620396885819694)
        Cl       : -0.2979576443543662	(pressure: -0.2970924938019628	viscous: -0.0008651505524034124)
        Cl(f)    : -0.09510246086381381
        Cl(r)    : -0.2028551834905524

Time = 12

smoothSolver:  Solving for Ux, Initial residual = 0.01898099892632719, Final residual = 0.001029387514020073, No Iterations 3
smoothSolver:  Solving for Uy, Initial residual = 0.1217436839014653, Final residual = 0.007626801099835408, No Iterations 3
smoothSolver:  Solving for Uz, Initial residual = 0.04924714803466898, Final residual = 0.002640380303579, No Iterations 3
GAMG:  Solving for p, Initial residual = 0.2805760927010253, Final residual = 0.01366764046252651, No Iterations 2
time step continuity errors : sum local = 0.01040084291315208, global = -0.001061044869511884, cumulative = 0.002054764276667046
smoothSolver:  Solving for nuTilda, Initial residual = 0.03192311251432686, Final residual = 0.002920831707561575, No Iterations 2
bounding nuTilda, min: 0 max: 0.002396595165335838 average: 0.0004227591092448522
CD: 0.04478856856339453
ExecutionTime = 0.49 s  ClockTime = 0 s

forceCoeffs forceCoeffs execute:
    Coefficients
        Cm       : -0.1799192411987733	(pressure: -0.189570167770949	viscous: 0.009650926572175708)
        Cd       : 0.04478856856339433	(pressure: 0.0003997220388871082	viscous: 0.04438884652450722)
        Cl       : 0.01009748562088334	(pressure: 0.01121613960634326	viscous: -0.001118653985459926)
        Cl(f)    : -0.1748704983883316
        Cl(r)    : 0.184967984009215

Time = 13

smoothSolver:  Solving for Ux, Initial residual = 0.01797904845747079, Final residual = 0.0009668416767842345, No Iterations 3
smoothSolver:  Solving for Uy, Initial residual = 0.09764712261977389, Final residual = 0.005860666716184352, No Iterations 3
smoothSolver:  Solving for Uz, Initial residual = 0.04553894631321851, Final residual = 0.002409012265683077, No Iterations 3
GAMG:  Solving for p, Initial residual = 0.3172273834621945, Final residual = 0.01982252680284914, No Iterations 2
time step continuity errors : sum local = 0.01243426967092985, global = -0.002259252703423622, cumulative = -0.0002044884267565755
smoothSolver:  Solving for nuTilda, Initial residual = 0.02823607350141816, Final residual = 0.001273824719894411, No Iterations 3
bounding nuTilda, min: 0 max: 0.002997305290675531 average: 0.0004909703495663243
CD: -0.05608396801179336
ExecutionTime = 0.51 s  ClockTime = 0 s

forceCoeffs forceCoeffs execute:
    Coefficients
        Cm       : -0.3951092230577143	(pressure: -0.4044933068725091	viscous: 0.00938408381479478)
        Cd       : -0.0560839680117933	(pressure: -0.09901643849538917	viscous: 0.04293247048359587)
        Cl       : 0.473358309954136	(pressure: 0.4745540823385737	viscous: -0.001195772384437666)
        Cl(f)    : -0.1584300680806463
        Cl(r)    : 0.6317883780347824

Time = 14

smoothSolver:  Solving for Ux, Initial residual = 0.01747058846423174, Final residual = 0.000932050838473081, No Iterations 3
smoothSolver:  Solving for Uy, Initial residual = 0.08457209782617718, Final residual = 0.004698249615126848, No Iterations 3
smoothSolver:  Solving for Uz, Initial residual = 0.04841585452641543, Final residual = 0.002578917077042966, No Iterations 3
GAMG:  Solving for p, Initial residual = 0.4105444877639207, Final residual = 0.0282546036615191, No Iterations 2
time step continuity errors : sum local = 0.01244731143878615, global = -0.0009645610706934812, cumulative = -0.001169049497450057
smoothSolver:  Solving for nuTilda, Initial residual = 0.0248452834475932, Final residual = 0.001246659366406408, No Iterations 3
bounding nuTilda, min: 0 max: 0.003792297360564289 average: 0.0005720309297201314
CD: 0.1533042822571392
ExecutionTime = 0.55 s  ClockTime = 0 s

forceCoeffs forceCoeffs execute:
    Coefficients
        Cm       : -0.4081710572248738	(pressure: -0.417415705065432	viscous: 0.009244647840558201)
        Cd       : 0.1533042822571396	(pressure: 0.1111765579018964	viscous: 0.04212772435524326)
        Cl       : 0.7097817169231907	(pressure: 0.7109323564313847	viscous: -0.001150639508194033)
        Cl(f)    : -0.05328019876327844
        Cl(r)    : 0.7630619156864691

Time = 15

smoothSolver:  Solving for Ux, Initial residual = 0.01620990245426686, Final residual = 0.0009014579805101604, No Iterations 3
smoothSolver:  Solving for Uy, Initial residual = 0.07869327727570181, Final residual = 0.004478610145477347, No Iterations 3
smoothSolver:  Solving for Uz, Initial residual = 0.05434423263736386, Final residual = 0.003046418078360605, No Iterations 3
GAMG:  Solving for p, Initial residual = 0.5428797761935887, Final residual = 0.02763069547088177, No Iterations 2
time step continuity errors : sum local = 0.009217858384061202, global = -0.0009665527331682773, cumulative = -0.002135602230618334
smoothSolver:  Solving for nuTilda, Initial residual = 0.02206056642758993, Final residual = 0.001206174027070794, No Iterations 3
bounding nuTilda, min: 0 max: 0.004696671634816449 average: 0.000666451775367352
CD: 0.4469428300818778
ExecutionTime = 0.57 s  ClockTime = 0 s

forceCoeffs forceCoeffs execute:
    Coefficients
        Cm       : -0.2163644901634879	(pressure: -0.2256102347822131	viscous: 0.009245744618725146)
        Cd       : 0.4469428300818785	(pressure: 0.4050772735041525	viscous: 0.04186555657772597)
        Cl       : 0.5484079068253797	(pressure: 0.5494961082128166	viscous: -0.001088201387436912)
        Cl(f)    : 0.05783946324920189
        Cl(r)    : 0.4905684435761778

Time = 16

smoothSolver:  Solving for Ux, Initial residual = 0.01593170739668925, Final residual = 0.0008496819533960619, No Iterations 3
smoothSolver:  Solving for Uy, Initial residual = 0.06586457023566016, Final residual = 0.00366721418385659, No Iterations 3
smoothSolver:  Solving for Uz, Initial residual = 0.05177509643000412, Final residual = 0.002957562706085578, No Iterations 3
GAMG:  Solving for p, Initial residual = 0.5011537469602962, Final residual = 0.02185132689901683, No Iterations 2
time step continuity errors : sum local = 0.007614971361411853, global = 0.0008915035508968264, cumulative = -0.001244098679721507
smoothSolver:  Solving for nuTilda, Initial residual = 0.01971393392888812, Final residual = 0.001157541607657527, No Iterations 3
bounding nuTilda, min: 0 max: 0.005684689893041832 average: 0.000774664524128294
CD: 0.6354674203761101
ExecutionTime = 0.6 s  ClockTime = 0 s

forceCoeffs forceCoeffs execute:
    Coefficients
        Cm       : 0.008448597626795744	(pressure: -0.0008846223316270641	viscous: 0.009333219958422808)
        Cd       : 0.6354674203761096	(pressure: 0.5935387584495878	viscous: 0.04192866192652177)
        Cl       : 0.2228358826821932	(pressure: 0.2239200168137634	viscous: -0.001084134131570204)
        Cl(f)    : 0.1198665389678924
        Cl(r)    : 0.1029693437143009

Time = 17

smoothSolver:  Solving for Ux, Initial residual = 0.01502085491334468, Final residual = 0.0007787681954125098, No Iterations 3
smoothSolver:  Solving for Uy, Initial residual = 0.05913056798011528, Final residual = 0.003134157229006515, No Iterations 3
smoothSolver:  Solving for Uz, Initial residual = 0.04526467337076696, Final residual = 0.0025360952749578, No Iterations 3
GAMG:  Solving for p, Initial residual = 0.3692615552205221, Final residual = 0.02012884562949149, No Iterations 2
time step continuity errors : sum local = 0.008574482960603747, global = 0.001831619273221803, cumulative = 0.0005875205935002958
smoothSolver:  Solving for nuTilda, Initial residual = 0.01768915134644206, Final residual = 0.001097655430072518, No Iterations 3
bounding nuTilda, min: 0 max: 0.006678344381539926 average: 0.0008963189403254801
CD: 0.6606730562294251
ExecutionTime = 0.63 s  ClockTime = 0 s

forceCoeffs forceCoeffs execute:
    Coefficients
        Cm       : 0.169186619770119	(pressure: 0.1597069023298795	viscous: 0.009479717440239543)
        Cd       : 0.6606730562294238	(pressure: 0.6185891961704786	viscous: 0.04208386005894522)
        Cl       : -0.1031767189845351	(pressure: -0.1019761954170143	viscous: -0.001200523567520752)
        Cl(f)    : 0.1175982602778515
        Cl(r)    : -0.2207749792623866

Time = 18

smoothSolver:  Solving for Ux, Initial residual = 0.01298207747775804, Final residual = 0.0006615855616894183, No Iterations 3
smoothSolver:  Solving for Uy, Initial residual = 0.06135412381843108, Final residual = 0.003220219698699021, No Iterations 3
smoothSolver:  Solving for Uz, Initial residual = 0.04343938555450238, Final residual = 0.002343938095279246, No Iterations 3
GAMG:  Solving for p, Initial residual = 0.2709069704712035, Final residual = 0.01703862662333766, No Iterations 2
time step continuity errors : sum local = 0.00880394341425769, global = 0.0008530089339160764, cumulative = 0.001440529527416372
smoothSolver:  Solving for nuTilda, Initial residual = 0.01594991300612806, Final residual = 0.00103670134131428, No Iterations 3
bounding nuTilda, min: 0 max: 0.007580116735021666 average: 0.001030568423521968
CD: 0.5223398838018964
ExecutionTime = 0.66 s  ClockTime = 0 s

forceCoeffs forceCoeffs execute:
    Coefficients
        Cm       : 0.1427085866609921	(pressure: 0.1330970783554517	viscous: 0.009611508305540393)
        Cd       : 0.5223398838018962	(pressure: 0.480248096364324	viscous: 0.04209178743757216)
        Cl       : -0.1835824106760183	(pressure: -0.1821851857927564	viscous: -0.00139722488326188)
        Cl(f)    : 0.05091738132298296
        Cl(r)    : -0.2344997919990013

Time = 19

smoothSolver:  Solving for Ux, Initial residual = 0.01123222684740672, Final residual = 0.0005783721627898543, No Iterations 3
smoothSolver:  Solving for Uy, Initial residual = 0.06388521502818852, Final residual = 0.003432921027885925, No Iterations 3
smoothSolver:  Solving for Uz, Initial residual = 0.04349889973939883, Final residual = 0.002326581877440316, No Iterations 3
GAMG:  Solving for p, Initial residual = 0.240560634724743, Final residual = 0.01095909621405129, No Iterations 2
time step continuity errors : sum local = 0.006316988713102102, global = 0.001139756006888508, cumulative = 0.002580285534304881
smoothSolver:  Solving for nuTilda, Initial residual = 0.01440573576223606, Final residual = 0.000964440536979194, No Iterations 3
bounding nuTilda, min: 0 max: 0.008781244598222411 average: 0.001174473805419956
CD: 0.3583297421179108
ExecutionTime = 0.6899999999999999 s  ClockTime = 0 s

forceCoeffs forceCoeffs execute:
    Coefficients
        Cm       : -0.02536287860421418	(pressure: -0.03502249156123684	viscous: 0.009659612957022664)
        Cd       : 0.3583297421179109	(pressure: 0.3164321206952569	viscous: 0.04189762142265399)
        Cl       : -0.0007781602551230251	(pressure: 0.0007850835793484739	viscous: -0.001563243834471499)
        Cl(f)    : -0.02575195873177569
        Cl(r)    : 0.02497379847665267

Time = 20

smoothSolver:  Solving for Ux, Initial residual = 0.01083874687330824, Final residual = 0.0005377762222501252, No Iterations 3
smoothSolver:  Solving for Uy, Initial residual = 0.0569843970499386, Final residual = 0.003302328717847758, No Iterations 3
smoothSolver:  Solving for Uz, Initial residual = 0.04218765739650553, Final residual = 0.002309010528019904, No Iterations 3
GAMG:  Solving for p, Initial residual = 0.2381928929278723, Final residual = 0.009683004633222497, No Iterations 2
time step continuity errors : sum local = 0.005420041648244172, global = -0.0004229792106072526, cumulative = 0.002157306323697628
smoothSolver:  Solving for nuTilda, Initial residual = 0.01306970076866551, Final residual = 0.0008891167849887114, No Iterations 3
bounding nuTilda, min: 0 max: 0.0102847714414925 average: 0.001324704586346137
CD: 0.2666098990032123
ExecutionTime = 0.72 s  ClockTime = 0 s

forceCoeffs forceCoeffs execute:
    Coefficients
        Cm       : -0.19828324385624	(pressure: -0.2079078709351881	viscous: 0.009624627078948128)
        Cd       : 0.2666098990032124	(pressure: 0.2249700086635642	viscous: 0.04163989033964823)
        Cl       : 0.2516352332885484	(pressure: 0.2532563968524666	viscous: -0.001621163563918242)
        Cl(f)    : -0.07246562721196578
        Cl(r)    : 0.3241008605005141

Time = 21

smoothSolver:  Solving for Ux, Initial residual = 0.01068491230407513, Final residual = 0.0005665693185263214, No Iterations 3
smoothSolver:  Solving for Uy, Initial residual = 0.04770901010319835, Final residual = 0.002803591423048717, No Iterations 3
smoothSolver:  Solving for Uz, Initial residual = 0.03896381718218232, Final residual = 0.002193028824196852, No Iterations 3
GAMG:  Solving for p, Initial residual = 0.2309685621878441, Final residual = 0.01188427224206762, No Iterations 2
time step continuity errors : sum local = 0.006043989911465915, global = -0.001433692844132521, cumulative = 0.0007236134795651074
smoothSolver:  Solving for nuTilda, Initial residual = 0.01188794610661478, Final residual = 0.0008154324892936973, No Iterations 3
bounding nuTilda, min: 0 max: 0.01181010415788645 average: 0.001478314508637765
CD: 0.2670128912080842
ExecutionTime = 0.75 s  ClockTime = 0 s

forceCoeffs forceCoeffs execute:
    Coefficients
        Cm       : -0.3102783146284214	(pressure: -0.3198230755142671	viscous: 0.009544760885845762)
        Cd       : 0.2670128912080842	(pressure: 0.2255619696822215	viscous: 0.0414509215258627)
        Cl       : 0.4646326388489139	(pressure: 0.4662006114152223	viscous: -0.001567972566308428)
        Cl(f)    : -0.07796199520396441
        Cl(r)    : 0.5425946340528783

Time = 22

smoothSolver:  Solving for Ux, Initial residual = 0.009705418926077377, Final residual = 0.000555356263421103, No Iterations 3
smoothSolver:  Solving for Uy, Initial residual = 0.04484690801973873, Final residual = 0.002423671171911786, No Iterations 3
smoothSolver:  Solving for Uz, Initial residual = 0.03791149377276883, Final residual = 0.002142386386824765, No Iterations 3
GAMG:  Solving for p, Initial residual = 0.2305432821012259, Final residual = 0.0142001600419422, No Iterations 2
time step continuity errors : sum local = 0.006272120874443145, global = -0.0007878620071613449, cumulative = -6.424852759623757e-05
smoothSolver:  Solving for nuTilda, Initial residual = 0.01082741613049493, Final residual = 0.0007425202425829897, No Iterations 3
bounding nuTilda, min: 0 max: 0.0133008788253968 average: 0.001631926919784949
CD: 0.3524631967084737
ExecutionTime = 0.78 s  ClockTime = 0 s

forceCoeffs forceCoeffs execute:
    Coefficients
        Cm       : -0.2925138005344086	(pressure: -0.3019781964037157	viscous: 0.009464395869307135)
        Cd       : 0.352463196708474	(pressure: 0.3110578697123995	viscous: 0.04140532699607449)
        Cl       : 0.5002422248760723	(pressure: 0.5016908795845214	viscous: -0.001448654708449163)
        Cl(f)    : -0.04239268809637242
        Cl(r)    : 0.5426349129724447

Time = 23

smoothSolver:  Solving for Ux, Initial residual = 0.008647202774127101, Final residual = 0.0004888563914117511, No Iterations 3
smoothSolver:  Solving for Uy, Initial residual = 0.04143137694510537, Final residual = 0.002285639639153712, No Iterations 3
smoothSolver:  Solving for Uz, Initial residual = 0.03822609428567235, Final residual = 0.002190083360881241, No Iterations 3
GAMG:  Solving for p, Initial residual = 0.2576533865513245, Final residual = 0.01163185989712642, No Iterations 2
time step continuity errors : sum local = 0.00445012196316627, global = -0.001021447025743969, cumulative = -0.001085695553340207
smoothSolver:  Solving for nuTilda, Initial residual = 0.00989235211150534, Final residual = 0.0006751876691599954, No Iterations 3
bounding nuTilda, min: 0 max: 0.01469269221337365 average: 0.001782902069794278
CD: 0.4448060676458399
ExecutionTime = 0.8100000000000001 s  ClockTime = 0 s

forceCoeffs forceCoeffs execute:
    Coefficients
        Cm       : -0.1941759928856769	(pressure: -0.2035966196229538	viscous: 0.00942062673727681)
        Cd       : 0.444806067645838	(pressure: 0.4032747212291317	viscous: 0.04153134641670622)
        Cl       : 0.3827032698751036	(pressure: 0.3840322352360904	viscous: -0.001328965360986829)
        Cl(f)    : -0.002824357948125134
        Cl(r)    : 0.3855276278232287

Time = 24

smoothSolver:  Solving for Ux, Initial residual = 0.008580387330174523, Final residual = 0.0004218799492359208, No Iterations 3
smoothSolver:  Solving for Uy, Initial residual = 0.03471947943327031, Final residual = 0.002129946080842412, No Iterations 3
smoothSolver:  Solving for Uz, Initial residual = 0.03472847966501936, Final residual = 0.002068582977487332, No Iterations 3
GAMG:  Solving for p, Initial residual = 0.2524375145636405, Final residual = 0.009721595148634373, No Iterations 2
time step continuity errors : sum local = 0.003544534829722643, global = 7.470191864871346e-06, cumulative = -0.001078225361475335
smoothSolver:  Solving for nuTilda, Initial residual = 0.009046867080693842, Final residual = 0.0006150991151973323, No Iterations 3
bounding nuTilda, min: 0 max: 0.0159299608781165 average: 0.001928872535012147
CD: 0.4920317519352063
ExecutionTime = 0.84 s  ClockTime = 0 s

forceCoeffs forceCoeffs execute:
    Coefficients
        Cm       : -0.1129006993312024	(pressure: -0.1223138064289924	viscous: 0.009413107097789961)
        Cd       : 0.4920317519352055	(pressure: 0.4502641009440923	viscous: 0.04176765099111326)
        Cl       : 0.2529210067250319	(pressure: 0.2541664129305407	viscous: -0.001245406205508795)
        Cl(f)    : 0.01355980403131352
        Cl(r)    : 0.2393612026937184

Time = 25

smoothSolver:  Solving for Ux, Initial residual = 0.008000137302210605, Final residual = 0.0003998984954312858, No Iterations 3
smoothSolver:  Solving for Uy, Initial residual = 0.02963629638138072, Final residual = 0.001828620064461377, No Iterations 3
smoothSolver:  Solving for Uz, Initial residual = 0.02955460368129945, Final residual = 0.001762971193049673, No Iterations 3
GAMG:  Solving for p, Initial residual = 0.2203248566636797, Final residual = 0.01062013812936163, No Iterations 2
time step continuity errors : sum local = 0.00394318664742928, global = 0.001050355564619474, cumulative = -2.786979685586192e-05
smoothSolver:  Solving for nuTilda, Initial residual = 0.008305285190563859, Final residual = 0.0005666383096808545, No Iterations 3
bounding nuTilda, min: 0 max: 0.01697628476792038 average: 0.002069348510131768
CD: 0.4905601253762615
ExecutionTime = 0.87 s  ClockTime = 0 s

forceCoeffs forceCoeffs execute:
    Coefficients
        Cm       : -0.0858828741682133	(pressure: -0.09530236029692507	viscous: 0.009419486128711761)
        Cd       : 0.4905601253762609	(pressure: 0.448525946700252	viscous: 0.04203417867600882)
        Cl       : 0.1745041955985815	(pressure: 0.1757004350118423	viscous: -0.0011962394132608)
        Cl(f)    : 0.001369223631077429
        Cl(r)    : 0.173134971967504

Time = 26

smoothSolver:  Solving for Ux, Initial residual = 0.007090282169188018, Final residual = 0.0003970920383848933, No Iterations 3
smoothSolver:  Solving for Uy, Initial residual = 0.03059697190651489, Final residual = 0.00176638028942688, No Iterations 3
smoothSolver:  Solving for Uz, Initial residual = 0.02735543070655394, Final residual = 0.001626571899692678, No Iterations 3
GAMG:  Solving for p, Initial residual = 0.18167696256722, Final residual = 0.01063600149873995, No Iterations 2
time step continuity errors : sum local = 0.004137611594180297, global = 0.0006653120219453403, cumulative = 0.0006374422250894784
smoothSolver:  Solving for nuTilda, Initial residual = 0.007680628000323119, Final residual = 0.0005298702493078791, No Iterations 3
bounding nuTilda, min: 0 max: 0.01784438475687454 average: 0.002204698688790551
CD: 0.4431080555752045
ExecutionTime = 0.9 s  ClockTime = 0 s

forceCoeffs forceCoeffs execute:
    Coefficients
        Cm       : -0.1410861367606414	(pressure: -0.1505016595857274	viscous: 0.009415522825086004)
        Cd       : 0.4431080555752045	(pressure: 0.4008388979712171	viscous: 0.04226915760398739)
        Cl       : 0.2118942210941579	(pressure: 0.2130553619138648	viscous: -0.001161140819706911)
        Cl(f)    : -0.03513902621356242
        Cl(r)    : 0.2470332473077204

Time = 27

smoothSolver:  Solving for Ux, Initial residual = 0.006121555188174799, Final residual = 0.0003755892496857516, No Iterations 3
smoothSolver:  Solving for Uy, Initial residual = 0.03032471094105748, Final residual = 0.001721154644280822, No Iterations 3
smoothSolver:  Solving for Uz, Initial residual = 0.02565990963375776, Final residual = 0.001519591718922236, No Iterations 3
GAMG:  Solving for p, Initial residual = 0.1618981535572869, Final residual = 0.007589502121841109, No Iterations 2
time step continuity errors : sum local = 0.003216312753354556, global = 0.000858137877480785, cumulative = 0.001495580102570263
smoothSolver:  Solving for nuTilda, Initial residual = 0.007145073853146484, Final residual = 0.0005022889444924127, No Iterations 3
bounding nuTilda, min: 0 max: 0.01933620839782654 average: 0.002334969332933278
CD: 0.3925584537652466
ExecutionTime = 0.93 s  ClockTime = 0 s

forceCoeffs forceCoeffs execute:
    Coefficients
        Cm       : -0.2278078404113665	(pressure: -0.2371948229450406	viscous: 0.009386982533674159)
        Cd       : 0.3925584537652474	(pressure: 0.3501204421194166	viscous: 0.04243801164583084)
        Cl       : 0.3212663449640332	(pressure: 0.3223826525437128	viscous: -0.001116307579679636)
        Cl(f)    : -0.0671746679293499
        Cl(r)    : 0.3884410128933831

Time = 28

smoothSolver:  Solving for Ux, Initial residual = 0.005953590702744774, Final residual = 0.0003335780473045501, No Iterations 3
smoothSolver:  Solving for Uy, Initial residual = 0.02526120923102545, Final residual = 0.001541201686835514, No Iterations 3
smoothSolver:  Solving for Uz, Initial residual = 0.02306103097233493, Final residual = 0.001446073013360099, No Iterations 3
GAMG:  Solving for p, Initial residual = 0.1481914696976474, Final residual = 0.005723725041999236, No Iterations 2
time step continuity errors : sum local = 0.002546518190477127, global = 0.0003105161681188014, cumulative = 0.001806096270689065
smoothSolver:  Solving for nuTilda, Initial residual = 0.006687043626173462, Final residual = 0.0004836750027420128, No Iterations 3
bounding nuTilda, min: 0 max: 0.02043779391949667 average: 0.002460333338912884
CD: 0.3684590995738551
ExecutionTime = 0.96 s  ClockTime = 1 s

forceCoeffs forceCoeffs execute:
    Coefficients
        Cm       : -0.2827130607458663	(pressure: -0.2920627865472528	viscous: 0.009349725801386564)
        Cd       : 0.3684590995738546	(pressure: 0.3258948594276532	viscous: 0.04256424014620135)
        Cl       : 0.4098210007516059	(pressure: 0.4108832414471909	viscous: -0.001062240695585046)
        Cl(f)    : -0.07780256037006333
        Cl(r)    : 0.4876235611216692

Time = 29

smoothSolver:  Solving for Ux, Initial residual = 0.005610751049205154, Final residual = 0.0003053094351140379, No Iterations 3
smoothSolver:  Solving for Uy, Initial residual = 0.02109419180149071, Final residual = 0.001355122973121851, No Iterations 3
smoothSolver:  Solving for Uz, Initial residual = 0.02089259553433217, Final residual = 0.001345790100644556, No Iterations 3
GAMG:  Solving for p, Initial residual = 0.1311654243096647, Final residual = 0.006456776797158172, No Iterations 2
time step continuity errors : sum local = 0.002856682203517744, global = -0.0007276415565444881, cumulative = 0.001078454714144576
smoothSolver:  Solving for nuTilda, Initial residual = 0.006282402370548942, Final residual = 0.000471152198180533, No Iterations 3
bounding nuTilda, min: 0 max: 0.02136897126366588 average: 0.002581020049494803
CD: 0.3685666107571892
ExecutionTime = 0.99 s  ClockTime = 1 s

forceCoeffs forceCoeffs execute:
    Coefficients
        Cm       : -0.2920172364789752	(pressure: -0.3013406253453607	viscous: 0.009323388866385505)
        Cd       : 0.3685666107571893	(pressure: 0.3258849043309158	viscous: 0.04268170642627356)
        Cl       : 0.4474992724038981	(pressure: 0.4485100385354132	viscous: -0.001010766131514991)
        Cl(f)    : -0.06826760027702614
        Cl(r)    : 0.5157668726809242

Time = 30

smoothSolver:  Solving for Ux, Initial residual = 0.005277904274867368, Final residual = 0.0002904597625365209, No Iterations 3
smoothSolver:  Solving for Uy, Initial residual = 0.02073582136048334, Final residual = 0.001307805569453313, No Iterations 3
smoothSolver:  Solving for Uz, Initial residual = 0.02006283965139982, Final residual = 0.001344640087008934, No Iterations 3
GAMG:  Solving for p, Initial residual = 0.1213546640998934, Final residual = 0.006953911189953875, No Iterations 2
time step continuity errors : sum local = 0.002971501771084753, global = -0.0006667644484035277, cumulative = 0.0004116902657410487
smoothSolver:  Solving for nuTilda, Initial residual = 0.005912176328901978, Final residual = 0.0004609349527840645, No Iterations 3
bounding nuTilda, min: 0 max: 0.02204059488267329 average: 0.002696655999664509
CD: 0.3915717429084567
ExecutionTime = 1.02 s  ClockTime = 1 s

forceCoeffs forceCoeffs execute:
    Coefficients
        Cm       : -0.2475552600317088	(pressure: -0.2568697377665911	viscous: 0.009314477734882269)
        Cd       : 0.391571742908456	(pressure: 0.3487651286668167	viscous: 0.0428066142416393)
        Cl       : 0.4096260349382404	(pressure: 0.4105955748029095	viscous: -0.0009695398646690755)
        Cl(f)    : -0.04274224256258857
        Cl(r)    : 0.452368277500829

Time = 31

smoothSolver:  Solving for Ux, Initial residual = 0.004680263814977223, Final residual = 0.000294992711249029, No Iterations 3
smoothSolver:  Solving for Uy, Initial residual = 0.01966482980852787, Final residual = 0.001276392116276463, No Iterations 3
smoothSolver:  Solving for Uz, Initial residual = 0.01859548239037666, Final residual = 0.001269983729864706, No Iterations 3
GAMG:  Solving for p, Initial residual = 0.1272619780764823, Final residual = 0.006520654866179812, No Iterations 2
time step continuity errors : sum local = 0.002596868061587051, global = -0.0006973335192768315, cumulative = -0.0002856432535357828
smoothSolver:  Solving for nuTilda, Initial residual = 0.005592564853170635, Final residual = 0.0004491838914838688, No Iterations 3
bounding nuTilda, min: 0 max: 0.02248018266142807 average: 0.002807264752069444
CD: 0.4207135210577771
ExecutionTime = 1.05 s  ClockTime = 1 s

forceCoeffs forceCoeffs execute:
    Coefficients
        Cm       : -0.1818890763081282	(pressure: -0.1912133385111135	viscous: 0.009324262202985283)
        Cd       : 0.4207135210577762	(pressure: 0.3777657638599907	viscous: 0.04294775719778543)
        Cl       : 0.3271967634412903	(pressure: 0.3281426394294559	viscous: -0.0009458759881655595)
        Cl(f)    : -0.01829069458748303
        Cl(r)    : 0.3454874580287733

Time = 32

smoothSolver:  Solving for Ux, Initial residual = 0.004672249100258343, Final residual = 0.0002875675711161108, No Iterations 3
smoothSolver:  Solving for Uy, Initial residual = 0.01704561008630582, Final residual = 0.001227449169715701, No Iterations 3
smoothSolver:  Solving for Uz, Initial residual = 0.0163287215958119, Final residual = 0.001182061276295167, No Iterations 3
GAMG:  Solving for p, Initial residual = 0.1294876579217097, Final residual = 0.005117548101356312, No Iterations 2
time step continuity errors : sum local = 0.001900739497739549, global = -0.0005457234303136802, cumulative = -0.000831366683849463
smoothSolver:  Solving for nuTilda, Initial residual = 0.005319980318876362, Final residual = 0.000432092428218367, No Iterations 3
bounding nuTilda, min: 0 max: 0.02285799943152041 average: 0.002912479089383706
CD: 0.4383665627281373
ExecutionTime = 1.07 s  ClockTime = 1 s

forceCoeffs forceCoeffs execute:
    Coefficients
        Cm       : -0.139035141362634	(pressure: -0.1483799124699723	viscous: 0.009344771107338324)
        Cd       : 0.4383665627281377	(pressure: 0.3952719977472212	viscous: 0.04309456498091659)
        Cl       : 0.2624711054444149	(pressure: 0.2634092071135463	viscous: -0.0009381016691313932)
        Cl(f)    : -0.007799588640426514
        Cl(r)    : 0.2702706940848414

Time = 33

smoothSolver:  Solving for Ux, Initial residual = 0.004447261373466034, Final residual = 0.0002766852439509691, No Iterations 3
smoothSolver:  Solving for Uy, Initial residual = 0.01556845772368567, Final residual = 0.001183512667076614, No Iterations 3
smoothSolver:  Solving for Uz, Initial residual = 0.01473266663442487, Final residual = 0.001129984239700102, No Iterations 3
GAMG:  Solving for p, Initial residual = 0.1179339599777227, Final residual = 0.005599741797952871, No Iterations 2
time step continuity errors : sum local = 0.002024291382110278, global = 0.0003168628926337374, cumulative = -0.0005145037912157257
smoothSolver:  Solving for nuTilda, Initial residual = 0.005099185049006888, Final residual = 0.0004085702438242361, No Iterations 3
bounding nuTilda, min: 0 max: 0.02327464538669514 average: 0.003012348140229808
CD: 0.4430526326935749
ExecutionTime = 1.1 s  ClockTime = 1 s

forceCoeffs forceCoeffs execute:
    Coefficients
        Cm       : -0.127867644765567	(pressure: -0.1372349458941798	viscous: 0.009367301128612811)
        Cd       : 0.4430526326935751	(pressure: 0.399823657484205	viscous: 0.04322897520937006)
        Cl       : 0.2347582662561859	(pressure: 0.2356985488325932	viscous: -0.0009402825764073376)
        Cl(f)    : -0.01048851163747408
        Cl(r)    : 0.24524677789366

Time = 34

smoothSolver:  Solving for Ux, Initial residual = 0.004156024131120679, Final residual = 0.0002619960298357422, No Iterations 3
smoothSolver:  Solving for Uy, Initial residual = 0.01557246104065034, Final residual = 0.001153103304435976, No Iterations 3
smoothSolver:  Solving for Uz, Initial residual = 0.01461909338477663, Final residual = 0.001143287201012455, No Iterations 3
GAMG:  Solving for p, Initial residual = 0.1097691074615138, Final residual = 0.005619340626611243, No Iterations 2
time step continuity errors : sum local = 0.002025797641550705, global = 0.0006129113413410333, cumulative = 9.840755012530762e-05
smoothSolver:  Solving for nuTilda, Initial residual = 0.004920971896986235, Final residual = 0.0003811168979084899, No Iterations 3
bounding nuTilda, min: 0 max: 0.02384867568756307 average: 0.003106863353238539
CD: 0.4346779688989103
ExecutionTime = 1.13 s  ClockTime = 1 s

forceCoeffs forceCoeffs execute:
    Coefficients
        Cm       : -0.1470730553527161	(pressure: -0.156461911081543	viscous: 0.009388855728826903)
        Cd       : 0.4346779688989096	(pressure: 0.391337681559322	viscous: 0.04334028733958754)
        Cl       : 0.2491262378637887	(pressure: 0.2500748433907134	viscous: -0.0009486055269247027)
        Cl(f)    : -0.02250993642082173
        Cl(r)    : 0.2716361742846105

Time = 35

smoothSolver:  Solving for Ux, Initial residual = 0.003572941963754269, Final residual = 0.0002502719308007836, No Iterations 3
smoothSolver:  Solving for Uy, Initial residual = 0.01472161130988778, Final residual = 0.001061785523969984, No Iterations 3
smoothSolver:  Solving for Uz, Initial residual = 0.01423673698862759, Final residual = 0.001092818826544189, No Iterations 3
GAMG:  Solving for p, Initial residual = 0.1010910946014291, Final residual = 0.005208160328227014, No Iterations 2
time step continuity errors : sum local = 0.001941750857407069, global = 0.0005150328350481927, cumulative = 0.0006134403851735003
smoothSolver:  Solving for nuTilda, Initial residual = 0.004771929004032591, Final residual = 0.0003518209054456751, No Iterations 3
bounding nuTilda, min: 0 max: 0.02411374537117673 average: 0.003196263298484563
CD: 0.4181557504186939
ExecutionTime = 1.16 s  ClockTime = 1 s

forceCoeffs forceCoeffs execute:
    Coefficients
        Cm       : -0.1794864397198043	(pressure: -0.1888958443809489	viscous: 0.009409404661144576)
        Cd       : 0.4181557504186941	(pressure: 0.3747319071922728	viscous: 0.04342384322642134)
        Cl       : 0.2893222365975315	(pressure: 0.290282442345998	viscous: -0.000960205748466547)
        Cl(f)    : -0.03482532142103859
        Cl(r)    : 0.3241475580185701

Time = 36

smoothSolver:  Solving for Ux, Initial residual = 0.003355035582560215, Final residual = 0.0002475715058447591, No Iterations 3
smoothSolver:  Solving for Uy, Initial residual = 0.01263796065422093, Final residual = 0.0009151856703879369, No Iterations 3
smoothSolver:  Solving for Uz, Initial residual = 0.01317245305434973, Final residual = 0.00100514056650278, No Iterations 3
GAMG:  Solving for p, Initial residual = 0.08868231320469373, Final residual = 0.003648829211873886, No Iterations 2
time step continuity errors : sum local = 0.001434324595299088, global = 0.0005641374068815258, cumulative = 0.001177577792055026
smoothSolver:  Solving for nuTilda, Initial residual = 0.004624634011567844, Final residual = 0.0003238673422622113, No Iterations 3
bounding nuTilda, min: 0 max: 0.0242319517312371 average: 0.003280534443946082
CD: 0.4046953722417582
ExecutionTime = 1.19 s  ClockTime = 1 s

forceCoeffs forceCoeffs execute:
    Coefficients
        Cm       : -0.1976872686245379	(pressure: -0.207118923289233	viscous: 0.009431654664695111)
        Cd       : 0.4046953722417579	(pressure: 0.3612094486347376	viscous: 0.04348592360702031)
        Cl       : 0.3183320627962291	(pressure: 0.3193064978999508	viscous: -0.0009744351037216886)
        Cl(f)    : -0.03852123722642331
        Cl(r)    : 0.3568533000226524

Time = 37

smoothSolver:  Solving for Ux, Initial residual = 0.003340830332512027, Final residual = 0.0002412414419211713, No Iterations 3
smoothSolver:  Solving for Uy, Initial residual = 0.01135754346947188, Final residual = 0.0008073160546987542, No Iterations 3
smoothSolver:  Solving for Uz, Initial residual = 0.01226963022285928, Final residual = 0.0009278667756739878, No Iterations 3
GAMG:  Solving for p, Initial residual = 0.07784308160684869, Final residual = 0.003281881489394304, No Iterations 2
time step continuity errors : sum local = 0.001321147241461165, global = 9.699490787966487e-05, cumulative = 0.001274572699934691
smoothSolver:  Solving for nuTilda, Initial residual = 0.004478906443936294, Final residual = 0.0002987025817962368, No Iterations 3
bounding nuTilda, min: 0 max: 0.02428754050014232 average: 0.003359907110201622
CD: 0.3983233971157669
ExecutionTime = 1.22 s  ClockTime = 1 s

forceCoeffs forceCoeffs execute:
    Coefficients
        Cm       : -0.1933285089029355	(pressure: -0.2027853581869879	viscous: 0.009456849284052396)
        Cd       : 0.3983233971157668	(pressure: 0.3547842503885049	viscous: 0.04353914672726195)
        Cl       : 0.3204543658107569	(pressure: 0.3214452042614564	viscous: -0.000990838450699551)
        Cl(f)    : -0.03310132599755702
        Cl(r)    : 0.3535556918083139

Time = 38

smoothSolver:  Solving for Ux, Initial residual = 0.003258028505588385, Final residual = 0.000227048463794672, No Iterations 3
smoothSolver:  Solving for Uy, Initial residual = 0.01091770177018423, Final residual = 0.000794218780030056, No Iterations 3
smoothSolver:  Solving for Uz, Initial residual = 0.01218832990963507, Final residual = 0.0009557523575284369, No Iterations 3
GAMG:  Solving for p, Initial residual = 0.07383168859992033, Final residual = 0.003509247763385453, No Iterations 2
time step continuity errors : sum local = 0.001412577349406073, global = -0.0003904163632724148, cumulative = 0.0008841563366622762
smoothSolver:  Solving for nuTilda, Initial residual = 0.004327399010242368, Final residual = 0.0002764781721859222, No Iterations 3
bounding nuTilda, min: 0 max: 0.02431467890137885 average: 0.003434785614984409
CD: 0.398830215404824
ExecutionTime = 1.25 s  ClockTime = 1 s

forceCoeffs forceCoeffs execute:
    Coefficients
        Cm       : -0.1694634143537918	(pressure: -0.1789469474846903	viscous: 0.009483533130898536)
        Cd       : 0.3988302154048238	(pressure: 0.3552379062818676	viscous: 0.0435923091229562)
        Cl       : 0.295854587906744	(pressure: 0.2968629130647208	viscous: -0.001008325157976763)
        Cl(f)    : -0.02153612040041974
        Cl(r)    : 0.3173907083071638

Time = 39

smoothSolver:  Solving for Ux, Initial residual = 0.00296753121616003, Final residual = 0.0002187182813392045, No Iterations 3
smoothSolver:  Solving for Uy, Initial residual = 0.01050819958825444, Final residual = 0.0007948116446505628, No Iterations 3
smoothSolver:  Solving for Uz, Initial residual = 0.01224059961767125, Final residual = 0.001019536642447856, No Iterations 3
GAMG:  Solving for p, Initial residual = 0.07070717180854511, Final residual = 0.003681857780856941, No Iterations 2
time step continuity errors : sum local = 0.001458321235717744, global = -0.0004033594080394875, cumulative = 0.0004807969286227887
smoothSolver:  Solving for nuTilda, Initial residual = 0.004176979715729331, Final residual = 0.0002578643563633437, No Iterations 3
bounding nuTilda, min: 0 max: 0.02450701543664532 average: 0.003505119278471437
CD: 0.4057757146253254
ExecutionTime = 1.28 s  ClockTime = 1 s

forceCoeffs forceCoeffs execute:
    Coefficients
        Cm       : -0.1378496682930745	(pressure: -0.1473599380212168	viscous: 0.009510269728142291)
        Cd       : 0.4057757146253247	(pressure: 0.3621249935338678	viscous: 0.04365072109145687)
        Cl       : 0.2565502842915237	(pressure: 0.2575767330947461	viscous: -0.001026448803222458)
        Cl(f)    : -0.009574526147312662
        Cl(r)    : 0.2661248104388363

Time = 40

smoothSolver:  Solving for Ux, Initial residual = 0.002650337184238936, Final residual = 0.0002140734914754177, No Iterations 3
smoothSolver:  Solving for Uy, Initial residual = 0.009567146508153058, Final residual = 0.0007707865241585427, No Iterations 3
smoothSolver:  Solving for Uz, Initial residual = 0.01186188688783799, Final residual = 0.001019993659096391, No Iterations 3
GAMG:  Solving for p, Initial residual = 0.06809936158446965, Final residual = 0.003280074412843545, No Iterations 2
time step continuity errors : sum local = 0.001250436059371129, global = -0.0004175652577906371, cumulative = 6.323167083215157e-05
smoothSolver:  Solving for nuTilda, Initial residual = 0.004020359393429852, Final residual = 0.0002440071237710928, No Iterations 3
bounding nuTilda, min: 0 max: 0.02473822854142622 average: 0.003570830209717495
CD: 0.413978034432377
ExecutionTime = 1.31 s  ClockTime = 1 s

forceCoeffs forceCoeffs execute:
    Coefficients
        Cm       : -0.1190669259252748	(pressure: -0.1286020686140515	viscous: 0.00953514268877673)
        Cd       : 0.413978034432376	(pressure: 0.3702636328214682	viscous: 0.04371440161090781)
        Cl       : 0.2292653158354845	(pressure: 0.2303092846944561	viscous: -0.001043968858971568)
        Cl(f)    : -0.004434268007532507
        Cl(r)    : 0.233699583843017

Time = 41

smoothSolver:  Solving for Ux, Initial residual = 0.002658330020846407, Final residual = 0.0002056398446435302, No Iterations 3
smoothSolver:  Solving for Uy, Initial residual = 0.008931751253259084, Final residual = 0.0007234468442552526, No Iterations 3
smoothSolver:  Solving for Uz, Initial residual = 0.01124144114197172, Final residual = 0.0009824795163066516, No Iterations 3
GAMG:  Solving for p, Initial residual = 0.06224886456194339, Final residual = 0.002507053235997675, No Iterations 2
time step continuity errors : sum local = 0.0009220341320157226, global = -0.0002795343191880809, cumulative = -0.0002163026483559293
smoothSolver:  Solving for nuTilda, Initial residual = 0.003845498510442645, Final residual = 0.00023422388600721, No Iterations 3
bounding nuTilda, min: 0 max: 0.02492020750686679 average: 0.003631707641845044
CD: 0.4188695998714078
ExecutionTime = 1.33 s  ClockTime = 1 s

forceCoeffs forceCoeffs execute:
    Coefficients
        Cm       : -0.1203674083107711	(pressure: -0.1299232586448927	viscous: 0.009555850334121619)
        Cd       : 0.4188695998714081	(pressure: 0.3750938776093909	viscous: 0.04377572226201719)
        Cl       : 0.2261981642047435	(pressure: 0.2272568313173238	viscous: -0.001058667112580331)
        Cl(f)    : -0.007268326208399303
        Cl(r)    : 0.2334664904131428

Time = 42

smoothSolver:  Solving for Ux, Initial residual = 0.002525133635988782, Final residual = 0.0001893497502578399, No Iterations 3
smoothSolver:  Solving for Uy, Initial residual = 0.008615221595879146, Final residual = 0.000697832488727194, No Iterations 3
smoothSolver:  Solving for Uz, Initial residual = 0.010828587664997, Final residual = 0.0009609027282490755, No Iterations 3
GAMG:  Solving for p, Initial residual = 0.05755715011080995, Final residual = 0.002629316886462808, No Iterations 2
time step continuity errors : sum local = 0.0009558900046296507, global = 0.0001603872795424403, cumulative = -5.591536881348902e-05
smoothSolver:  Solving for nuTilda, Initial residual = 0.003651798542815357, Final residual = 0.000228180109395773, No Iterations 3
bounding nuTilda, min: 0 max: 0.02505441476755135 average: 0.003688039326029163
CD: 0.4202814828857458
ExecutionTime = 1.37 s  ClockTime = 1 s

forceCoeffs forceCoeffs execute:
    Coefficients
        Cm       : -0.1358536609498692	(pressure: -0.1454255314438908	viscous: 0.00957187049402162)
        Cd       : 0.4202814828857457	(pressure: 0.3764551942777938	viscous: 0.04382628860795185)
        Cl       : 0.2419754116219428	(pressure: 0.2430451259133469	viscous: -0.001069714291404067)
        Cl(f)    : -0.01486595513889775
        Cl(r)    : 0.2568413667608406

Time = 43

smoothSolver:  Solving for Ux, Initial residual = 0.002410041709523677, Final residual = 0.0001752166947189844, No Iterations 3
smoothSolver:  Solving for Uy, Initial residual = 0.008280658423330235, Final residual = 0.0006929370541166086, No Iterations 3
smoothSolver:  Solving for Uz, Initial residual = 0.01075678910967712, Final residual = 0.0009772327111432684, No Iterations 3
GAMG:  Solving for p, Initial residual = 0.05738081520290247, Final residual = 0.002733889516564376, No Iterations 2
time step continuity errors : sum local = 0.0009960343639141851, global = 0.0003605001434208691, cumulative = 0.0003045847746073801
smoothSolver:  Solving for nuTilda, Initial residual = 0.003453065000195871, Final residual = 0.0002245664764000494, No Iterations 3
bounding nuTilda, min: 0 max: 0.02514407607974437 average: 0.003739691920946129
CD: 0.4178978128905854
ExecutionTime = 1.39 s  ClockTime = 1 s

forceCoeffs forceCoeffs execute:
    Coefficients
        Cm       : -0.1587579804826855	(pressure: -0.1683415924115895	viscous: 0.009583611928903999)
        Cd       : 0.4178978128905851	(pressure: 0.3740366992257234	viscous: 0.04386111366486171)
        Cl       : 0.2695752406657945	(pressure: 0.2706523649531126	viscous: -0.00107712428731816)
        Cl(f)    : -0.02397036014978826
        Cl(r)    : 0.2935456008155827

Time = 44

smoothSolver:  Solving for Ux, Initial residual = 0.002175538302847993, Final residual = 0.0001689748038914587, No Iterations 3
smoothSolver:  Solving for Uy, Initial residual = 0.007847728087717911, Final residual = 0.0006721388857106694, No Iterations 3
smoothSolver:  Solving for Uz, Initial residual = 0.01087059639033862, Final residual = 0.0009614085066303155, No Iterations 3
GAMG:  Solving for p, Initial residual = 0.05548271066332001, Final residual = 0.002742205815416284, No Iterations 2
time step continuity errors : sum local = 0.001015002965249367, global = 0.000353195945548683, cumulative = 0.000657780720156063
smoothSolver:  Solving for nuTilda, Initial residual = 0.003256402514880363, Final residual = 0.0002218428761099234, No Iterations 3
bounding nuTilda, min: 0 max: 0.02519438244202351 average: 0.003786727872462536
CD: 0.4135911279673876
ExecutionTime = 1.42 s  ClockTime = 1 s

forceCoeffs forceCoeffs execute:
    Coefficients
        Cm       : -0.1773221444122504	(pressure: -0.1869136934864762	viscous: 0.00959154907422583)
        Cd       : 0.413591127967388	(pressure: 0.3697115634036733	viscous: 0.04387956456371463)
        Cl       : 0.2943313960930543	(pressure: 0.2954123794426873	viscous: -0.001080983349633048)
        Cl(f)    : -0.03015644636572326
        Cl(r)    : 0.3244878424587776

Time = 45

smoothSolver:  Solving for Ux, Initial residual = 0.002022320563658126, Final residual = 0.0001653637607173909, No Iterations 3
smoothSolver:  Solving for Uy, Initial residual = 0.007646046959006105, Final residual = 0.0006301675763652294, No Iterations 3
smoothSolver:  Solving for Uz, Initial residual = 0.01084451795255705, Final residual = 0.000913069161224741, No Iterations 3
GAMG:  Solving for p, Initial residual = 0.05056159353482771, Final residual = 0.002208255570162597, No Iterations 2
time step continuity errors : sum local = 0.0008392125016288191, global = 0.0003557815256513936, cumulative = 0.001013562245807457
smoothSolver:  Solving for nuTilda, Initial residual = 0.003069491800088629, Final residual = 0.0002197694695468596, No Iterations 3
bounding nuTilda, min: 0 max: 0.02521107045049507 average: 0.003829452975859944
CD: 0.4111616330626736
ExecutionTime = 1.45 s  ClockTime = 1 s

forceCoeffs forceCoeffs execute:
    Coefficients
        Cm       : -0.182657176328208	(pressure: -0.1922539915060377	viscous: 0.009596815177829678)
        Cd       : 0.4111616330626732	(pressure: 0.3672744700054321	viscous: 0.04388716305724112)
        Cl       : 0.3036752590723157	(pressure: 0.3047574873268487	viscous: -0.001082228254532997)
        Cl(f)    : -0.03081954679205021
        Cl(r)    : 0.3344948058643659

Time = 46

smoothSolver:  Solving for Ux, Initial residual = 0.001961201307375067, Final residual = 0.0001578108610704618, No Iterations 3
smoothSolver:  Solving for Uy, Initial residual = 0.007498742192903906, Final residual = 0.0005929374370108009, No Iterations 3
smoothSolver:  Solving for Uz, Initial residual = 0.01051344474317153, Final residual = 0.000860062112431758, No Iterations 3
GAMG:  Solving for p, Initial residual = 0.04694498120488253, Final residual = 0.001969225417133248, No Iterations 2
time step continuity errors : sum local = 0.0007616081823896983, global = 0.0001192836285574915, cumulative = 0.001132845874364948
smoothSolver:  Solving for nuTilda, Initial residual = 0.002908356779364494, Final residual = 0.0002184198387419515, No Iterations 3
bounding nuTilda, min: 0 max: 0.02530240342269763 average: 0.003867931525987448
CD: 0.4113903998963535
ExecutionTime = 1.48 s  ClockTime = 1 s

forceCoeffs forceCoeffs execute:
    Coefficients
        Cm       : -0.177737201356127	(pressure: -0.1873377653521457	viscous: 0.009600563996018659)
        Cd       : 0.4113903998963532	(pressure: 0.3674980821673011	viscous: 0.04389231772905218)
        Cl       : 0.2998880954674068	(pressure: 0.3009701257667223	viscous: -0.001082030299315483)
        Cl(f)    : -0.02779315362242363
        Cl(r)    : 0.3276812490898304

Time = 47

smoothSolver:  Solving for Ux, Initial residual = 0.001892231764014438, Final residual = 0.0001458160375946231, No Iterations 3
smoothSolver:  Solving for Uy, Initial residual = 0.007190708228265194, Final residual = 0.0005831885213619529, No Iterations 3
smoothSolver:  Solving for Uz, Initial residual = 0.009764592440916663, Final residual = 0.0008205684767098642, No Iterations 3
GAMG:  Solving for p, Initial residual = 0.04440673023330004, Final residual = 0.001890313498306298, No Iterations 2
time step continuity errors : sum local = 0.0007352853001298609, global = -0.0002053263975550627, cumulative = 0.0009275194768098853
smoothSolver:  Solving for nuTilda, Initial residual = 0.002780271180468931, Final residual = 0.0002160251449943985, No Iterations 3
bounding nuTilda, min: 0 max: 0.02572871260629932 average: 0.003902303722775114
CD: 0.413515277850707
ExecutionTime = 1.51 s  ClockTime = 1 s

forceCoeffs forceCoeffs execute:
    Coefficients
        Cm       : -0.1682566733062059	(pressure: -0.1778597994282313	viscous: 0.009603126122025383)
        Cd       : 0.4135152778507077	(pressure: 0.3696142348420688	viscous: 0.04390104300863885)
        Cl       : 0.2891301202239534	(pressure: 0.2902109331130882	viscous: -0.001080812889134784)
        Cl(f)    : -0.02369161319422922
        Cl(r)    : 0.3128217334181826

Time = 48

smoothSolver:  Solving for Ux, Initial residual = 0.001775552639811347, Final residual = 0.0001338155267624993, No Iterations 3
smoothSolver:  Solving for Uy, Initial residual = 0.006962674807355282, Final residual = 0.0005817771723410117, No Iterations 3
smoothSolver:  Solving for Uz, Initial residual = 0.009045651599447695, Final residual = 0.0007936720301427837, No Iterations 3
GAMG:  Solving for p, Initial residual = 0.04153737674427863, Final residual = 0.001856804736643835, No Iterations 2
time step continuity errors : sum local = 0.0007212652170190433, global = -0.0002965196473858864, cumulative = 0.000630999829423999
smoothSolver:  Solving for nuTilda, Initial residual = 0.002679963393777083, Final residual = 0.00021176509588356, No Iterations 3
bounding nuTilda, min: 0 max: 0.02635570856172307 average: 0.003933332553714949
CD: 0.4167586806418134
ExecutionTime = 1.54 s  ClockTime = 1 s

forceCoeffs forceCoeffs execute:
    Coefficients
        Cm       : -0.1591429174649049	(pressure: -0.1687476838872069	viscous: 0.009604766422302008)
        Cd       : 0.4167586806418134	(pressure: 0.3728429811786598	viscous: 0.04391569946315358)
        Cl       : 0.2771096737304715	(pressure: 0.2781886781017301	viscous: -0.001079004371258588)
        Cl(f)    : -0.02058808059966913
        Cl(r)    : 0.2976977543301407

Time = 49

smoothSolver:  Solving for Ux, Initial residual = 0.001672109255689128, Final residual = 0.0001239873451415011, No Iterations 3
smoothSolver:  Solving for Uy, Initial residual = 0.00672257208051063, Final residual = 0.000564791766261709, No Iterations 3
smoothSolver:  Solving for Uz, Initial residual = 0.00863371985783915, Final residual = 0.0007788200493757412, No Iterations 3
GAMG:  Solving for p, Initial residual = 0.03858616178808894, Final residual = 0.001815720274203389, No Iterations 2
time step continuity errors : sum local = 0.0006956560188784892, global = -0.0002633816844111787, cumulative = 0.0003676181450128203
smoothSolver:  Solving for nuTilda, Initial residual = 0.002603186750340247, Final residual = 0.0002062600889671027, No Iterations 3
bounding nuTilda, min: 0 max: 0.02694712376850192 average: 0.003962052053770483
CD: 0.4189094922914542
ExecutionTime = 1.57 s  ClockTime = 1 s

forceCoeffs forceCoeffs execute:
    Coefficients
        Cm       : -0.1566389866672983	(pressure: -0.1662445951921899	viscous: 0.009605608524891687)
        Cd       : 0.4189094922914533	(pressure: 0.3749745829842787	viscous: 0.04393490930717457)
        Cl       : 0.2722296338898886	(pressure: 0.2733065017710639	viscous: -0.001076867881175287)
        Cl(f)    : -0.02052416972235394
        Cl(r)    : 0.2927538036122426

Time = 50

smoothSolver:  Solving for Ux, Initial residual = 0.00166608723817333, Final residual = 0.0001178955725482677, No Iterations 3
smoothSolver:  Solving for Uy, Initial residual = 0.006527447823054329, Final residual = 0.0005402519176472196, No Iterations 3
smoothSolver:  Solving for Uz, Initial residual = 0.008304043259571577, Final residual = 0.0007585263737522802, No Iterations 3
GAMG:  Solving for p, Initial residual = 0.0366757746081865, Final residual = 0.001373974346357445, No Iterations 2
time step continuity errors : sum local = 0.0005144533540943441, global = -0.0002417328326263067, cumulative = 0.0001258853123865136
smoothSolver:  Solving for nuTilda, Initial residual = 0.002557517185135047, Final residual = 0.0001987865561303842, No Iterations 3
bounding nuTilda, min: 0 max: 0.02749918785975567 average: 0.003988712606292146
CD: 0.4186010661355163
ExecutionTime = 1.6 s  ClockTime = 1 s

forceCoeffs forceCoeffs execute:
    Coefficients
        Cm       : -0.1618798724903264	(pressure: -0.1714850834310346	viscous: 0.009605210940708155)
        Cd       : 0.418601066135516	(pressure: 0.3746470185552169	viscous: 0.04395404758029905)
        Cl       : 0.2770196995935301	(pressure: 0.2780936625765681	viscous: -0.001073962983037958)
        Cl(f)    : -0.02337002269356137
        Cl(r)    : 0.3003897222870915

Time = 51

smoothSolver:  Solving for Ux, Initial residual = 0.001633808185984389, Final residual = 0.0001137761811112536, No Iterations 3
smoothSolver:  Solving for Uy, Initial residual = 0.00633423120914285, Final residual = 0.0005378598851367191, No Iterations 3
[...]
time step continuity errors : sum local = 5.439096908529069e-10, global = 1.960713687264889e-11, cumulative = 0.0004349398908275957
smoothSolver:  Solving for nuTilda, Initial residual = 3.88449088026184e-09, Final residual = 3.1858840104176e-10, No Iterations 3
bounding nuTilda, min: 0 max: 0.04018716821990936 average: 0.004270823211793112
CD: 0.4138125547392158
ExecutionTime = 14.56 s  ClockTime = 14 s

forceCoeffs forceCoeffs execute:
    Coefficients
        Cm       : -0.1709752042459355	(pressure: -0.180593614436733	viscous: 0.009618410190797459)
        Cd       : 0.4138125547392157	(pressure: 0.3697932447029847	viscous: 0.04401931003623104)
        Cl       : 0.2886298023587529	(pressure: 0.2897036580844283	viscous: -0.001073855725675483)
        Cl(f)    : -0.02666030306655909
        Cl(r)    : 0.3152901054253119

Time = 488

smoothSolver:  Solving for Ux, Initial residual = 2.708568785252866e-09, Final residual = 1.474310742451372e-10, No Iterations 4
smoothSolver:  Solving for Uy, Initial residual = 1.180483399206426e-08, Final residual = 1.086355995295654e-09, No Iterations 3
smoothSolver:  Solving for Uz, Initial residual = 1.504201703090112e-08, Final residual = 1.431708298655584e-09, No Iterations 3
GAMG:  Solving for p, Initial residual = 5.235451177689527e-08, Final residual = 1.397063985295677e-09, No Iterations 2
time step continuity errors : sum local = 5.082869266506707e-10, global = -4.703762230289323e-12, cumulative = 0.0004349398861238335
smoothSolver:  Solving for nuTilda, Initial residual = 4.075897880426135e-09, Final residual = 2.86328814682838e-10, No Iterations 3
bounding nuTilda, min: 0 max: 0.04018716728760242 average: 0.004270823223268319
CD: 0.4138125574418415
ExecutionTime = 14.59 s  ClockTime = 14 s

forceCoeffs forceCoeffs execute:
    Coefficients
        Cm       : -0.1709752141661394	(pressure: -0.1805936243176819	viscous: 0.009618410151542483)
        Cd       : 0.4138125574418416	(pressure: 0.3697932474296441	viscous: 0.04401931001219755)
        Cl       : 0.2886298156866983	(pressure: 0.2897036713693651	viscous: -0.001073855682666871)
        Cl(f)    : -0.02666030632279029
        Cl(r)    : 0.3152901220094886

Time = 489

smoothSolver:  Solving for Ux, Initial residual = 2.627246292507022e-09, Final residual = 1.374463489859136e-10, No Iterations 4
smoothSolver:  Solving for Uy, Initial residual = 1.143969302679258e-08, Final residual = 9.721919873403092e-10, No Iterations 3
smoothSolver:  Solving for Uz, Initial residual = 1.49006846709944e-08, Final residual = 1.352862352249332e-09, No Iterations 3
GAMG:  Solving for p, Initial residual = 5.279112235879317e-08, Final residual = 1.363293928437857e-09, No Iterations 2
time step continuity errors : sum local = 4.960005960215571e-10, global = -2.58261518798794e-11, cumulative = 0.0004349398602976816
smoothSolver:  Solving for nuTilda, Initial residual = 4.207305507810793e-09, Final residual = 2.610194421567846e-10, No Iterations 3
bounding nuTilda, min: 0 max: 0.04018716606875123 average: 0.004270823230550574
CD: 0.4138125597510059
ExecutionTime = 14.62 s  ClockTime = 14 s

forceCoeffs forceCoeffs execute:
    Coefficients
        Cm       : -0.1709752186844786	(pressure: -0.1805936287960679	viscous: 0.009618410111589338)
        Cd       : 0.4138125597510062	(pressure: 0.3697932497609545	viscous: 0.04401930999005163)
        Cl       : 0.2886298224385124	(pressure: 0.2897036780778258	viscous: -0.001073855639313415)
        Cl(f)    : -0.02666030746522241
        Cl(r)    : 0.3152901299037348

Time = 490

smoothSolver:  Solving for Ux, Initial residual = 2.538410470207842e-09, Final residual = 1.227257435477064e-10, No Iterations 4
smoothSolver:  Solving for Uy, Initial residual = 1.085631301371847e-08, Final residual = 8.478449859620255e-10, No Iterations 3
smoothSolver:  Solving for Uz, Initial residual = 1.448711263282347e-08, Final residual = 1.290779928608654e-09, No Iterations 3
GAMG:  Solving for p, Initial residual = 5.255531711965784e-08, Final residual = 1.348347999165724e-09, No Iterations 2
time step continuity errors : sum local = 4.905629327921691e-10, global = -4.222509146497048e-11, cumulative = 0.0004349398180725902
smoothSolver:  Solving for nuTilda, Initial residual = 4.236466831580691e-09, Final residual = 2.571001882169429e-10, No Iterations 3
bounding nuTilda, min: 0 max: 0.04018716468678737 average: 0.004270823233201014
CD: 0.413812561480749
ExecutionTime = 14.65 s  ClockTime = 14 s

forceCoeffs forceCoeffs execute:
    Coefficients
        Cm       : -0.1709752180185088	(pressure: -0.1805936280930938	viscous: 0.009618410074584957)
        Cd       : 0.4138125614807485	(pressure: 0.3697932515093464	viscous: 0.0440193099714021)
        Cl       : 0.2886298227371755	(pressure: 0.2897036783367289	viscous: -0.001073855599553484)
        Cl(f)    : -0.02666030664992111
        Cl(r)    : 0.3152901293870966

Time = 491

smoothSolver:  Solving for Ux, Initial residual = 2.458039548280441e-09, Final residual = 2.317380846657986e-10, No Iterations 3
smoothSolver:  Solving for Uy, Initial residual = 1.025164587509745e-08, Final residual = 7.629229636969845e-10, No Iterations 3
smoothSolver:  Solving for Uz, Initial residual = 1.386682817844581e-08, Final residual = 1.269053435143901e-09, No Iterations 3
GAMG:  Solving for p, Initial residual = 5.079634098270778e-08, Final residual = 1.355067345051498e-09, No Iterations 2
time step continuity errors : sum local = 4.930075336504068e-10, global = -5.264886864835033e-11, cumulative = 0.0004349397654237215
smoothSolver:  Solving for nuTilda, Initial residual = 4.117071335769925e-09, Final residual = 2.656904195775927e-10, No Iterations 3
bounding nuTilda, min: 0 max: 0.04018716327230352 average: 0.004270823231167363
CD: 0.413812562592352
ExecutionTime = 14.67 s  ClockTime = 14 s

forceCoeffs forceCoeffs execute:
    Coefficients
        Cm       : -0.1709752124406292	(pressure: -0.18059362248389	viscous: 0.00961841004326079)
        Cd       : 0.4138125625923522	(pressure: 0.3697932526345346	viscous: 0.04401930995781767)
        Cl       : 0.2886298168216407	(pressure: 0.2897036723880407	viscous: -0.001073855566400067)
        Cl(f)    : -0.0266603040298089
        Cl(r)    : 0.3152901208514496

Time = 492

smoothSolver:  Solving for Ux, Initial residual = 2.382531392802396e-09, Final residual = 2.154305945141336e-10, No Iterations 3
smoothSolver:  Solving for Uy, Initial residual = 9.629821333369455e-09, Final residual = 7.394776313409297e-10, No Iterations 3
smoothSolver:  Solving for Uz, Initial residual = 1.318184742942186e-08, Final residual = 1.257458706715141e-09, No Iterations 3
GAMG:  Solving for p, Initial residual = 4.748623527828195e-08, Final residual = 1.369212314951322e-09, No Iterations 2
time step continuity errors : sum local = 4.981538044612196e-10, global = -5.895526325918604e-11, cumulative = 0.0004349397064684582
smoothSolver:  Solving for nuTilda, Initial residual = 3.866242775895364e-09, Final residual = 2.722870756571111e-10, No Iterations 3
bounding nuTilda, min: 0 max: 0.04018716195057272 average: 0.004270823224993219
CD: 0.4138125630511112
ExecutionTime = 14.7 s  ClockTime = 14 s

forceCoeffs forceCoeffs execute:
    Coefficients
        Cm       : -0.1709752029538407	(pressure: -0.1805936129737863	viscous: 0.00961841001994561)
        Cd       : 0.4138125630511121	(pressure: 0.3697932531010865	viscous: 0.04401930995002556)
        Cl       : 0.2886298058597558	(pressure: 0.2897036614019233	viscous: -0.00107385554216749)
        Cl(f)    : -0.02666030002396275
        Cl(r)    : 0.3152901058837186

Time = 493

smoothSolver:  Solving for Ux, Initial residual = 2.301907268935439e-09, Final residual = 2.084193803273624e-10, No Iterations 3
smoothSolver:  Solving for Uy, Initial residual = 9.139996555910461e-09, Final residual = 7.587822764086435e-10, No Iterations 3
smoothSolver:  Solving for Uz, Initial residual = 1.26073616623951e-08, Final residual = 6.520304695476744e-10, No Iterations 4
GAMG:  Solving for p, Initial residual = 4.363960987187947e-08, Final residual = 1.398783590439734e-09, No Iterations 2
time step continuity errors : sum local = 5.089125213001127e-10, global = -6.226408691533001e-11, cumulative = 0.0004349396442043713
smoothSolver:  Solving for nuTilda, Initial residual = 3.563324499767984e-09, Final residual = 2.834321878660762e-10, No Iterations 3
bounding nuTilda, min: 0 max: 0.04018716083165764 average: 0.004270823215455905
CD: 0.4138125627874572
ExecutionTime = 14.73 s  ClockTime = 14 s

forceCoeffs forceCoeffs execute:
    Coefficients
        Cm       : -0.1709751902110426	(pressure: -0.1805936002153117	viscous: 0.009618410004269115)
        Cd       : 0.4138125627874571	(pressure: 0.3697932528389758	viscous: 0.04401930994848127)
        Cl       : 0.2886297906396182	(pressure: 0.2897036461661873	viscous: -0.001073855526569152)
        Cl(f)    : -0.02666029489123348
        Cl(r)    : 0.3152900855308517

Time = 494

smoothSolver:  Solving for Ux, Initial residual = 2.243004968196292e-09, Final residual = 2.155600784365443e-10, No Iterations 3
smoothSolver:  Solving for Uy, Initial residual = 8.928684451720448e-09, Final residual = 7.934730155877882e-10, No Iterations 3
smoothSolver:  Solving for Uz, Initial residual = 1.208225005168667e-08, Final residual = 6.563237977585819e-10, No Iterations 4
GAMG:  Solving for p, Initial residual = 4.062424004026526e-08, Final residual = 1.367799111122265e-09, No Iterations 2
time step continuity errors : sum local = 4.97639955644585e-10, global = -5.900477593692129e-11, cumulative = 0.0004349395851995954
smoothSolver:  Solving for nuTilda, Initial residual = 3.278008186544616e-09, Final residual = 2.874476988842499e-10, No Iterations 3
bounding nuTilda, min: 0 max: 0.04018716000239434 average: 0.00427082320356207
CD: 0.4138125618946985
ExecutionTime = 14.76 s  ClockTime = 14 s

forceCoeffs forceCoeffs execute:
    Coefficients
        Cm       : -0.1709751754414091	(pressure: -0.1805935854413226	viscous: 0.009618409999913542)
        Cd       : 0.4138125618946988	(pressure: 0.3697932519419079	viscous: 0.04401930995279093)
        Cl       : 0.2886297726701302	(pressure: 0.2897036281934343	viscous: -0.001073855523304073)
        Cl(f)    : -0.02666028910634399
        Cl(r)    : 0.3152900617764742

Time = 495

smoothSolver:  Solving for Ux, Initial residual = 2.191538950530562e-09, Final residual = 1.159403888755061e-10, No Iterations 4
smoothSolver:  Solving for Uy, Initial residual = 8.873395223039005e-09, Final residual = 8.412311086122308e-10, No Iterations 3
smoothSolver:  Solving for Uz, Initial residual = 1.169263737016385e-08, Final residual = 6.565178902277563e-10, No Iterations 4
GAMG:  Solving for p, Initial residual = 3.921142972681561e-08, Final residual = 1.297382126676331e-09, No Iterations 2
time step continuity errors : sum local = 4.720202759011012e-10, global = -4.730759617638066e-11, cumulative = 0.0004349395378919992
smoothSolver:  Solving for nuTilda, Initial residual = 3.055320496923238e-09, Final residual = 2.818119478501964e-10, No Iterations 3
bounding nuTilda, min: 0 max: 0.04018715952070942 average: 0.004270823190413656
CD: 0.4138125604481722
ExecutionTime = 14.79 s  ClockTime = 14 s

forceCoeffs forceCoeffs execute:
    Coefficients
        Cm       : -0.1709751600034959	(pressure: -0.1805935700102199	viscous: 0.009618410006723961)
        Cd       : 0.4138125604481726	(pressure: 0.3697932504854777	viscous: 0.0440193099626949)
        Cl       : 0.2886297536090378	(pressure: 0.2897036091410624	viscous: -0.001073855532024625)
        Cl(f)    : -0.02666028319897704
        Cl(r)    : 0.3152900368080148

Time = 496

smoothSolver:  Solving for Ux, Initial residual = 2.162837341064194e-09, Final residual = 1.186442246561461e-10, No Iterations 4
smoothSolver:  Solving for Uy, Initial residual = 8.902161065764931e-09, Final residual = 8.841331920939422e-10, No Iterations 3
smoothSolver:  Solving for Uz, Initial residual = 1.157780575854694e-08, Final residual = 6.427648354357324e-10, No Iterations 4
GAMG:  Solving for p, Initial residual = 3.867719794384377e-08, Final residual = 1.207989592681427e-09, No Iterations 2
time step continuity errors : sum local = 4.394970661333258e-10, global = -3.297588191204346e-11, cumulative = 0.0004349395049161173
smoothSolver:  Solving for nuTilda, Initial residual = 2.898895415564599e-09, Final residual = 2.695152039866195e-10, No Iterations 3
bounding nuTilda, min: 0 max: 0.04018715941196784 average: 0.004270823177251399
CD: 0.4138125585930576
ExecutionTime = 14.82 s  ClockTime = 14 s

forceCoeffs forceCoeffs execute:
    Coefficients
        Cm       : -0.170975145320592	(pressure: -0.1805935553438781	viscous: 0.009618410023286065)
        Cd       : 0.4138125585930576	(pressure: 0.3697932486163148	viscous: 0.04401930997674282)
        Cl       : 0.2886297352092334	(pressure: 0.2897035907603642	viscous: -0.001073855551130788)
        Cl(f)    : -0.02666027771597534
        Cl(r)    : 0.3152900129252088

Time = 497

smoothSolver:  Solving for Ux, Initial residual = 2.131559170293615e-09, Final residual = 1.182410851968247e-10, No Iterations 4
smoothSolver:  Solving for Uy, Initial residual = 8.963228785825202e-09, Final residual = 8.895574431292907e-10, No Iterations 3
smoothSolver:  Solving for Uz, Initial residual = 1.146311676174801e-08, Final residual = 6.033072816117517e-10, No Iterations 4
GAMG:  Solving for p, Initial residual = 3.933801904406674e-08, Final residual = 1.151572943026574e-09, No Iterations 2
time step continuity errors : sum local = 4.189711851821368e-10, global = -1.998696356636702e-11, cumulative = 0.0004349394849291538
smoothSolver:  Solving for nuTilda, Initial residual = 2.880341336108762e-09, Final residual = 2.51360966398948e-10, No Iterations 3
bounding nuTilda, min: 0 max: 0.04018715966739168 average: 0.004270823165242623
CD: 0.4138125565159714
ExecutionTime = 14.85 s  ClockTime = 14 s

forceCoeffs forceCoeffs execute:
    Coefficients
        Cm       : -0.1709751328276297	(pressure: -0.180593542875032	viscous: 0.009618410047402307)
        Cd       : 0.4138125565159708	(pressure: 0.3697932465224533	viscous: 0.04401930999351742)
        Cl       : 0.2886297192633718	(pressure: 0.2897035748415252	viscous: -0.001073855578153345)
        Cl(f)    : -0.0266602731959438
        Cl(r)    : 0.3152899924593157

Time = 498

smoothSolver:  Solving for Ux, Initial residual = 2.069897909431278e-09, Final residual = 1.138084652379379e-10, No Iterations 4
smoothSolver:  Solving for Uy, Initial residual = 8.995074435192685e-09, Final residual = 8.558595681640636e-10, No Iterations 3
smoothSolver:  Solving for Uz, Initial residual = 1.137350299744758e-08, Final residual = 1.113763979240552e-09, No Iterations 3
GAMG:  Solving for p, Initial residual = 3.925665635735484e-08, Final residual = 1.072379954769003e-09, No Iterations 2
time step continuity errors : sum local = 3.901589700029519e-10, global = -7.866546019313469e-12, cumulative = 0.0004349394770626078
smoothSolver:  Solving for nuTilda, Initial residual = 3.011045415360679e-09, Final residual = 2.265259486759488e-10, No Iterations 3
bounding nuTilda, min: 0 max: 0.0401871602451571 average: 0.004270823155346422
CD: 0.4138125544604535
ExecutionTime = 14.88 s  ClockTime = 14 s

forceCoeffs forceCoeffs execute:
    Coefficients
        Cm       : -0.1709751237267633	(pressure: -0.1805935338026611	viscous: 0.009618410075897789)
        Cd       : 0.4138125544604528	(pressure: 0.3697932444489849	viscous: 0.04401931001146799)
        Cl       : 0.2886297073123395	(pressure: 0.2897035629219346	viscous: -0.001073855609595038)
        Cl(f)    : -0.02666027007059354
        Cl(r)    : 0.3152899773829331

Time = 499

smoothSolver:  Solving for Ux, Initial residual = 2.005895778900878e-09, Final residual = 1.068995946270985e-10, No Iterations 4
smoothSolver:  Solving for Uy, Initial residual = 8.798476820261444e-09, Final residual = 7.817593951583944e-10, No Iterations 3
smoothSolver:  Solving for Uz, Initial residual = 1.132355255122721e-08, Final residual = 1.050661909727861e-09, No Iterations 3
GAMG:  Solving for p, Initial residual = 3.946799870886756e-08, Final residual = 1.023576509837226e-09, No Iterations 2
time step continuity errors : sum local = 3.724030738183967e-10, global = 4.186426819933832e-12, cumulative = 0.0004349394812490346
smoothSolver:  Solving for nuTilda, Initial residual = 3.137147795539692e-09, Final residual = 2.056049910953875e-10, No Iterations 3
bounding nuTilda, min: 0 max: 0.04018716107657022 average: 0.004270823148357407
CD: 0.4138125526730045
ExecutionTime = 14.91 s  ClockTime = 14 s

forceCoeffs forceCoeffs execute:
    Coefficients
        Cm       : -0.1709751185276359	(pressure: -0.1805935286338302	viscous: 0.009618410106194287)
        Cd       : 0.413812552673004	(pressure: 0.3697932426441631	viscous: 0.04401931002884091)
        Cl       : 0.2886297000878867	(pressure: 0.2897035557305273	viscous: -0.001073855642640591)
        Cl(f)    : -0.02666026848369257
        Cl(r)    : 0.3152899685715793

Time = 500

smoothSolver:  Solving for Ux, Initial residual = 1.941753029828455e-09, Final residual = 9.77913484856436e-11, No Iterations 4
smoothSolver:  Solving for Uy, Initial residual = 8.428574957108186e-09, Final residual = 6.850876256786618e-10, No Iterations 3
smoothSolver:  Solving for Uz, Initial residual = 1.112835108803812e-08, Final residual = 9.984380297970324e-10, No Iterations 3
GAMG:  Solving for p, Initial residual = 3.982971196665073e-08, Final residual = 1.01484366390419e-09, No Iterations 2
time step continuity errors : sum local = 3.692257854900408e-10, global = 1.655312951811511e-11, cumulative = 0.0004349394978021641
smoothSolver:  Solving for nuTilda, Initial residual = 3.196880696034382e-09, Final residual = 1.916265501242244e-10, No Iterations 3
bounding nuTilda, min: 0 max: 0.04018716207439012 average: 0.004270823144748458
CD: 0.4138125512864492
ExecutionTime = 15.14 s  ClockTime = 15 s

forceCoeffs forceCoeffs execute:
    Coefficients
        Cm       : -0.1709751172277087	(pressure: -0.1805935273631291	viscous: 0.009618410135420353)
        Cd       : 0.4138125512864497	(pressure: 0.3697932412420931	viscous: 0.04401931004435659)
        Cl       : 0.2886296976793046	(pressure: 0.289703553353476	viscous: -0.001073855674171446)
        Cl(f)    : -0.02666026838805641
        Cl(r)    : 0.315289966067361

End

Writing Objective Function Values to objFuncs.dat
CD: 0.4138125512864492
Selecting simpleDAFoam for AdjointDerivative
Creating MRF zone list from MRFProperties
    creating MRF zone: MRF
    No MRF zones active

SIMPLE: convergence criteria
    field U	 tolerance 9.999999999999999e-21
    field nuTilda	 tolerance 9.999999999999999e-21
    field p	 tolerance 9.999999999999999e-21
    field e	 tolerance 9.999999999999999e-21
    field h	 tolerance 9.999999999999999e-21
    field p_rgh	 tolerance 9.999999999999999e-21
    field k	 tolerance 9.999999999999999e-21
    field omega	 tolerance 9.999999999999999e-21
    field epsilon	 tolerance 9.999999999999999e-21
    field T	 tolerance 9.999999999999999e-21
    field rho	 tolerance 9.999999999999999e-21

Printing Flow Residual Statistics.
U Residual Norm2: (0.005922378781729339 0.003561697787505925 0.004600268283694679)
U Residual Mean: (1.827014377855458e-05 1.072618467718181e-05 1.464577475733997e-05)
U Residual Max: (0.0005498845262863483 0.0003944049232798008 0.0004541966330009473)
p Residual Norm2: 0.0002640556209020005
p Residual Mean: 5.885521338394276e-07
p Residual Max: 4.128663113725151e-05
nuTilda Residual Norm2: 1.18041039291955e-05
nuTilda Residual Mean: 3.173183048243919e-08
nuTilda Residual Max: 1.278177081269139e-06
phi Residual Norm2: 1.773584615212666e-08
phi Residual Mean: 1.846303352714267e-11
phi Residual Max: 5.321373897082537e-09
